REMARK VINA RESULT:      -3.6      6.977      8.830
REMARK  6 active torsions:
REMARK  status: ('A' for Active; 'I' for Inactive)
REMARK    1  A    between atoms: C1_1  and  O1_8 
REMARK    2  A    between atoms: C2_2  and  O2_9 
REMARK    3  A    between atoms: C3_3  and  O3_10 
REMARK    4  A    between atoms: C4_4  and  O4_11 
REMARK    5  A    between atoms: C5_5  and  C6_6 
REMARK    6  A    between atoms: C6_6  and  O6_13 
ROOT
HETATM    1  C1  AMG     0      46.044  31.318  29.025  0.00  0.00     0.290 C 
HETATM    2  C2  AMG     0      47.001  30.306  28.393  0.00  0.00     0.204 C 
HETATM    3  C3  AMG     0      48.429  30.853  28.470  0.00  0.00     0.183 C 
HETATM    4  C4  AMG     0      48.453  32.251  27.845  0.00  0.00     0.180 C 
HETATM    5  C5  AMG     0      47.386  33.117  28.518  0.00  0.00     0.179 C 
HETATM    6  O5  AMG     0      46.097  32.547  28.305  0.00  0.00    -0.349 OA
ENDROOT
BRANCH   5   7
HETATM    7  C6  AMG     0      47.424  34.525  27.921  0.00  0.00     0.198 C 
BRANCH   7   8
HETATM    8  O6  AMG     0      46.672  34.548  26.706  0.00  0.00    -0.398 OA
HETATM    9  HO6 AMG     0      45.821  34.956  26.912  0.00  0.00     0.209 HD
ENDBRANCH   7   8
ENDBRANCH   5   7
BRANCH   4  10
HETATM   10  O4  AMG     0      48.178  32.157  26.446  0.00  0.00    -0.390 OA
HETATM   11  HO4 AMG     0      48.663  32.875  26.017  0.00  0.00     0.210 HD
ENDBRANCH   4  10
BRANCH   3  12
HETATM   12  O3  AMG     0      49.315  29.992  27.753  0.00  0.00    -0.390 OA
HETATM   13  HO3 AMG     0      50.213  30.308  27.924  0.00  0.00     0.210 HD
ENDBRANCH   3  12
BRANCH   1  14
HETATM   14  O1  AMG     0      46.423  31.547  30.383  0.00  0.00    -0.363 OA
HETATM   15  C7  AMG     0      45.232  31.457  31.166  0.00  0.00     0.204 C 
ENDBRANCH   1  14
BRANCH   2  16
HETATM   16  O2  AMG     0      46.925  29.068  29.100  0.00  0.00    -0.388 OA
HETATM   17  HO2 AMG     0      46.217  28.553  28.688  0.00  0.00     0.210 HD
ENDBRANCH   2  16
TORSDOF 6
