REMARK VINA RESULT:     -12.0      0.000      0.000
REMARK  6 active torsions:
REMARK  status: ('A' for Active; 'I' for Inactive)
REMARK    1  A    between atoms: C9_10  and  C11_11 
REMARK    2  A    between atoms: C11_11  and  C13_13 
REMARK    3  A    between atoms: C17_17  and  N21_19 
REMARK    4  A    between atoms: N21_19  and  S22_20 
REMARK    5  A    between atoms: S22_20  and  C25_23 
REMARK    6  A    between atoms: C25_23  and  C26_24 
ROOT
HETATM    1  C13 324 A 801     -37.810 -15.657 -44.095  1.00 42.26     0.095 A 
HETATM    2  C14 324 A 801     -39.036 -15.897 -43.500  1.00 40.48     0.145 A 
HETATM    3  C15 324 A 801     -39.410 -17.184 -43.144  1.00 41.22     0.032 A 
HETATM    4  C16 324 A 801     -38.568 -18.246 -43.442  1.00 44.04     0.025 A 
HETATM    5  C17 324 A 801     -37.323 -18.015 -44.046  1.00 44.34     0.121 A 
HETATM    6  C18 324 A 801     -36.964 -16.718 -44.401  1.00 44.82     0.164 A 
HETATM    7  F19 324 A 801     -39.846 -14.881 -43.232  1.00 41.47    -0.204 F 
HETATM    8  F20 324 A 801     -35.774 -16.478 -44.960  1.00 45.93    -0.202 F 
ENDROOT
BRANCH   1   9
HETATM    9  C11 324 A 801     -37.403 -14.252 -44.453  1.00 41.65     0.202 C 
HETATM   10  O12 324 A 801     -37.304 -13.952 -45.620  1.00 44.38    -0.286 OA
BRANCH   9  11
HETATM   11  C9  324 A 801     -37.083 -13.234 -43.387  1.00 39.63     0.061 A 
HETATM   12  C2  324 A 801     -36.928 -11.823 -43.605  1.00 39.42     0.041 A 
HETATM   13  C1  324 A 801     -37.069 -10.959 -44.732  1.00 39.89     0.016 A 
HETATM   14  C3  324 A 801     -36.615 -11.283 -42.377  1.00 39.90     0.163 A 
HETATM   15  C6  324 A 801     -36.844  -9.578 -44.539  1.00 40.79     0.077 A 
HETATM   16 CL10 324 A 801     -37.013  -8.514 -45.887  1.00 45.89    -0.081 Cl
HETATM   17  C5  324 A 801     -36.488  -9.110 -43.278  1.00 39.89     0.112 A 
HETATM   18  N4  324 A 801     -36.397  -9.946 -42.250  1.00 40.42    -0.224 NA
HETATM   19  N7  324 A 801     -36.534 -12.286 -41.464  1.00 39.01    -0.225 NA
HETATM   20  C8  324 A 801     -36.800 -13.444 -42.033  1.00 38.85     0.104 A 
ENDBRANCH   9  11
ENDBRANCH   1   9
BRANCH   5  21
HETATM   21  N21 324 A 801     -36.428 -19.078 -44.337  1.00 40.98    -0.160 NA
BRANCH  21  22
HETATM   22  S22 324 A 801     -36.225 -20.349 -43.310  1.00 38.91     0.265 S 
HETATM   23  O23 324 A 801     -37.337 -21.264 -43.410  1.00 35.82    -0.203 OA
HETATM   24  O24 324 A 801     -35.121 -21.152 -43.746  1.00 40.88    -0.203 OA
BRANCH  22  25
HETATM   25  C25 324 A 801     -35.907 -19.791 -41.649  1.00 38.43     0.146 C 
BRANCH  25  26
HETATM   26  C26 324 A 801     -36.119 -20.900 -40.639  1.00 36.75     0.019 C 
HETATM   27  C27 324 A 801     -35.758 -20.476 -39.234  1.00 35.00     0.001 C 
ENDBRANCH  25  26
ENDBRANCH  22  25
ENDBRANCH  21  22
ENDBRANCH   5  21
TORSDOF 6
