REMARK VINA RESULT:      -7.8      4.856     10.139
REMARK  8 active torsions:
REMARK  status: ('A' for Active; 'I' for Inactive)
REMARK    1  A    between atoms: C_5  and  C_8 
REMARK    2  A    between atoms: C_8  and  C_9 
REMARK    3  A    between atoms: C_9  and  C_10 
REMARK    4  A    between atoms: C_15  and  C_18 
REMARK    5  A    between atoms: C_25  and  C_28 
REMARK    6  A    between atoms: C_35  and  C_38 
REMARK    7  A    between atoms: C_38  and  C_39 
REMARK    8  A    between atoms: C_39  and  C_40 
ROOT
HETATM    1  N   UNK     0      -9.675  -4.188  28.800  0.00  0.00    -0.250 N 
HETATM    2  C   UNK     0      -9.224  -3.578  26.971  0.00  0.00     0.061 A 
HETATM    3  C   UNK     0     -10.258  -2.112  26.133  0.00  0.00     0.091 A 
HETATM    4  C   UNK     0      -8.432  -5.652  29.281  0.00  0.00     0.078 A 
HETATM    5  C   UNK     0      -7.212  -5.947  27.750  0.00  0.00    -0.007 A 
HETATM    6  C   UNK     0      -7.702  -4.666  26.322  0.00  0.00    -0.010 A 
HETATM    7  C   UNK     0      -7.251  -4.056  24.493  0.00  0.00     0.032 C 
HETATM    8  N   UNK     0     -12.194  -1.865  28.953  0.00  0.00    -0.254 N 
HETATM    9  C   UNK     0     -11.743  -1.255  27.123  0.00  0.00     0.060 A 
HETATM   10  C   UNK     0     -12.986   0.209  26.642  0.00  0.00    -0.011 A 
HETATM   11  C   UNK     0     -14.206   0.504  28.174  0.00  0.00    -0.011 A 
HETATM   12  C   UNK     0     -13.716  -0.777  29.602  0.00  0.00     0.060 A 
HETATM   13  C   UNK     0     -15.239   1.970  27.335  0.00  0.00     0.032 C 
HETATM   14  C   UNK     0     -14.834  -0.634  31.229  0.00  0.00     0.091 A 
HETATM   15  C   UNK     0      -7.925  -7.007  30.810  0.00  0.00     0.037 A 
HETATM   16  C   UNK     0     -14.498  -1.833  32.769  0.00  0.00     0.060 A 
HETATM   17  N   UNK     0     -13.210  -3.286  33.158  0.00  0.00    -0.254 N 
HETATM   18  C   UNK     0     -15.668  -1.614  34.352  0.00  0.00    -0.011 A 
HETATM   19  C   UNK     0     -15.104  -2.931  35.718  0.00  0.00    -0.011 A 
HETATM   20  C   UNK     0     -13.584  -3.965  34.980  0.00  0.00     0.060 A 
HETATM   21  C   UNK     0     -15.916  -3.172  37.507  0.00  0.00     0.032 C 
HETATM   22  C   UNK     0     -12.551  -5.431  35.818  0.00  0.00     0.091 A 
HETATM   23  C   UNK     0     -11.066  -6.288  34.827  0.00  0.00     0.061 A 
HETATM   24 Fe   UNK     0     -11.289  -3.997  31.176  0.00  0.00     0.000 Fe
HETATM   25  C   UNK     0     -10.032  -7.754  35.665  0.00  0.00    -0.010 A 
HETATM   26  C   UNK     0      -8.649  -8.343  34.376  0.00  0.00    -0.007 A 
HETATM   27  C   UNK     0      -8.829  -7.241  32.741  0.00  0.00     0.078 A 
HETATM   28  N   UNK     0     -10.322  -5.971  33.019  0.00  0.00    -0.250 N 
HETATM   29  C   UNK     0     -10.092  -8.690  37.410  0.00  0.00     0.032 C 
ENDROOT
BRANCH   5  30
HETATM   30  C   UNK     0      -6.179  -7.413  28.588  0.00  0.00     0.039 C 
BRANCH  30  31
HETATM   31  C   UNK     0      -6.658  -9.299  28.220  0.00  0.00     0.102 C 
BRANCH  31  32
HETATM   32  C   UNK     0      -7.663  -9.763  26.578  0.00  0.00     0.186 C 
HETATM   33  O   UNK     0      -6.759 -10.726  25.103  0.00  0.00    -0.647 OA
HETATM   34  O   UNK     0      -9.572  -9.265  26.412  0.00  0.00    -0.647 OA
ENDBRANCH  31  32
ENDBRANCH  30  31
ENDBRANCH   5  30
BRANCH  26  35
HETATM   35  C   UNK     0      -7.616  -9.810  35.215  0.00  0.00     0.039 C 
BRANCH  35  36
HETATM   36  C   UNK     0      -5.741 -10.136  34.669  0.00  0.00     0.102 C 
BRANCH  36  37
HETATM   37  C   UNK     0      -5.003  -9.222  33.074  0.00  0.00     0.186 C 
HETATM   38  O   UNK     0      -4.993  -7.244  32.983  0.00  0.00    -0.647 OA
HETATM   39  O   UNK     0      -4.275 -10.287  31.571  0.00  0.00    -0.647 OA
ENDBRANCH  36  37
ENDBRANCH  35  36
ENDBRANCH  26  35
BRANCH  10  40
HETATM   40  C   UNK     0     -13.322   1.407  25.102  0.00  0.00     0.027 C 
HETATM   41  C   UNK     0     -11.804   2.273  24.171  0.00  0.00     0.005 C 
ENDBRANCH  10  40
BRANCH  18  42
HETATM   42  C   UNK     0     -17.153  -0.757  35.342  0.00  0.00     0.027 C 
HETATM   43  C   UNK     0     -19.023  -1.025  34.750  0.00  0.00     0.005 C 
ENDBRANCH  18  42
TORSDOF 8
