REMARK VINA RESULT:      -8.7      4.067      9.789
REMARK  8 active torsions:
REMARK  status: ('A' for Active; 'I' for Inactive)
REMARK    1  A    between atoms: C_5  and  C_8 
REMARK    2  A    between atoms: C_8  and  C_9 
REMARK    3  A    between atoms: C_9  and  C_10 
REMARK    4  A    between atoms: C_15  and  C_18 
REMARK    5  A    between atoms: C_25  and  C_28 
REMARK    6  A    between atoms: C_35  and  C_38 
REMARK    7  A    between atoms: C_38  and  C_39 
REMARK    8  A    between atoms: C_39  and  C_40 
ROOT
HETATM    1  N   UNK     0     -12.434  -3.133  29.193  0.00  0.00    -0.250 N 
HETATM    2  C   UNK     0     -14.075  -2.028  29.112  0.00  0.00     0.061 A 
HETATM    3  C   UNK     0     -15.149  -1.727  30.748  0.00  0.00     0.091 A 
HETATM    4  C   UNK     0     -11.649  -3.198  27.377  0.00  0.00     0.078 A 
HETATM    5  C   UNK     0     -12.805  -2.133  26.172  0.00  0.00    -0.007 A 
HETATM    6  C   UNK     0     -14.305  -1.410  27.245  0.00  0.00    -0.010 A 
HETATM    7  C   UNK     0     -15.946  -0.305  27.163  0.00  0.00     0.032 C 
HETATM    8  N   UNK     0     -12.940  -3.636  32.548  0.00  0.00    -0.254 N 
HETATM    9  C   UNK     0     -14.581  -2.531  32.467  0.00  0.00     0.060 A 
HETATM   10  C   UNK     0     -15.366  -2.466  34.283  0.00  0.00    -0.011 A 
HETATM   11  C   UNK     0     -14.210  -3.531  35.488  0.00  0.00    -0.011 A 
HETATM   12  C   UNK     0     -12.710  -4.254  34.415  0.00  0.00     0.060 A 
HETATM   13  C   UNK     0     -15.283  -3.230  37.123  0.00  0.00     0.032 C 
HETATM   14  C   UNK     0     -11.436  -5.356  35.454  0.00  0.00     0.091 A 
HETATM   15  C   UNK     0     -10.048  -3.975  26.251  0.00  0.00     0.037 A 
HETATM   16  C   UNK     0      -9.869  -6.168  34.556  0.00  0.00     0.060 A 
HETATM   17  N   UNK     0      -9.161  -6.173  32.706  0.00  0.00    -0.254 N 
HETATM   18  C   UNK     0      -8.651  -7.253  35.679  0.00  0.00    -0.011 A 
HETATM   19  C   UNK     0      -7.192  -7.929  34.524  0.00  0.00    -0.011 A 
HETATM   20  C   UNK     0      -7.508  -7.261  32.686  0.00  0.00     0.060 A 
HETATM   21  C   UNK     0      -5.683  -9.071  35.104  0.00  0.00     0.032 C 
HETATM   22  C   UNK     0      -6.434  -7.562  31.050  0.00  0.00     0.091 A 
HETATM   23  C   UNK     0      -7.002  -6.758  29.332  0.00  0.00     0.061 A 
HETATM   24 Fe   UNK     0     -10.568  -4.739  30.685  0.00  0.00     0.000 Fe
HETATM   25  C   UNK     0      -5.928  -7.059  27.695  0.00  0.00    -0.010 A 
HETATM   26  C   UNK     0      -6.809  -6.103  26.201  0.00  0.00    -0.007 A 
HETATM   27  C   UNK     0      -8.428  -5.212  26.915  0.00  0.00     0.078 A 
HETATM   28  N   UNK     0      -8.546  -5.616  28.849  0.00  0.00    -0.250 N 
HETATM   29  C   UNK     0      -4.268  -8.051  27.274  0.00  0.00     0.032 C 
ENDROOT
BRANCH   5  30
HETATM   30  C   UNK     0     -11.732  -2.434  24.535  0.00  0.00     0.039 C 
BRANCH  30  31
HETATM   31  C   UNK     0     -10.522  -1.014  23.870  0.00  0.00     0.102 C 
BRANCH  31  32
HETATM   32  C   UNK     0      -9.409  -1.334  22.263  0.00  0.00     0.186 C 
HETATM   33  O   UNK     0      -9.506  -3.074  21.322  0.00  0.00    -0.647 OA
HETATM   34  O   UNK     0      -8.200   0.085  21.598  0.00  0.00    -0.647 OA
ENDBRANCH  31  32
ENDBRANCH  30  31
ENDBRANCH   5  30
BRANCH  26  35
HETATM   35  C   UNK     0      -5.735  -6.404  24.565  0.00  0.00     0.039 C 
BRANCH  35  36
HETATM   36  C   UNK     0      -6.439  -7.560  23.119  0.00  0.00     0.102 C 
BRANCH  36  37
HETATM   37  C   UNK     0      -8.254  -8.338  23.271  0.00  0.00     0.186 C 
HETATM   38  O   UNK     0      -9.537  -7.606  24.591  0.00  0.00    -0.647 OA
HETATM   39  O   UNK     0      -8.786  -9.846  22.104  0.00  0.00    -0.647 OA
ENDBRANCH  36  37
ENDBRANCH  35  36
ENDBRANCH  26  35
BRANCH  10  40
HETATM   40  C   UNK     0     -16.933  -1.654  35.181  0.00  0.00     0.027 C 
HETATM   41  C   UNK     0     -18.711  -1.708  34.310  0.00  0.00     0.005 C 
ENDBRANCH  10  40
BRANCH  18  42
HETATM   42  C   UNK     0      -8.083  -8.057  37.397  0.00  0.00     0.027 C 
HETATM   43  C   UNK     0      -8.221 -10.014  37.668  0.00  0.00     0.005 C 
ENDBRANCH  18  42
TORSDOF 8
