REMARK VINA RESULT:      -8.0      1.815      2.641
REMARK  7 active torsions:
REMARK  status: ('A' for Active; 'I' for Inactive)
REMARK    1  A    between atoms: CAA_1  and  CBA_6 
REMARK    2  A    between atoms: CAA_1  and  C2A_28 
REMARK    3  A    between atoms: CAB_2  and  C3B_35 
REMARK    4  A    between atoms: CAD_4  and  CBD_9 
REMARK    5  A    between atoms: CAD_4  and  C3D_37 
REMARK    6  A    between atoms: CBA_6  and  CGA_11 
REMARK    7  A    between atoms: CBD_9  and  CGD_12 
ROOT
HETATM    1  CAC HEM A 148     -24.019 -10.529  25.764  1.00 17.51    -0.025 C 
HETATM    2  NA  HEM A 148     -27.860  -7.417  20.117  1.00 13.88    -0.246 N 
HETATM    3  CBC HEM A 148     -24.239 -11.968  25.763  1.00 22.56     0.031 C 
HETATM    4  NB  HEM A 148     -26.740  -5.978  22.197  1.00 13.06    -0.246 N 
HETATM    5  ND  HEM A 148     -26.846  -9.771  21.178  1.00 11.97    -0.246 N 
HETATM    6  CHA HEM A 148     -28.242  -9.637  19.199  1.00 12.79     0.038 C 
HETATM    7  CHB HEM A 148     -27.978  -4.987  20.357  1.00 14.03     0.038 C 
HETATM    8  CHC HEM A 148     -25.756  -6.188  24.418  1.00 14.68     0.038 A 
HETATM    9  CHD HEM A 148     -25.577 -10.757  23.003  1.00 11.42     0.038 C 
HETATM   10  CMA HEM A 148     -29.987  -5.086  18.028  1.00 16.75     0.032 C 
HETATM   11  CMB HEM A 148     -27.350  -2.257  21.683  1.00 11.97     0.033 C 
HETATM   12  CMC HEM A 148     -24.505  -7.751  26.859  1.00 15.35     0.033 C 
HETATM   13  CMD HEM A 148     -26.106 -13.472  21.586  1.00 12.06     0.032 C 
HETATM   14  C1A HEM A 148     -28.456  -8.275  19.220  1.00 13.87     0.079 A 
HETATM   15  C1B HEM A 148     -27.222  -4.888  21.502  1.00 14.21     0.079 A 
HETATM   16  C1C HEM A 148     -25.568  -7.554  24.418  1.00 12.26     0.079 A 
HETATM   17  C1D HEM A 148     -26.280 -10.844  21.829  1.00 11.83     0.079 A 
HETATM   18  C2A HEM A 148     -29.382  -7.572  18.352  1.00 18.04    -0.006 A 
HETATM   19  C2B HEM A 148     -26.981  -3.648  22.204  1.00 14.05    -0.003 A 
HETATM   20  C2C HEM A 148     -24.926  -8.289  25.491  1.00 15.15    -0.003 A 
HETATM   21  C2D HEM A 148     -26.567 -12.083  21.164  1.00 12.69    -0.007 A 
HETATM   22  C3A HEM A 148     -29.267  -6.261  18.671  1.00 15.63    -0.007 A 
HETATM   23  C3B HEM A 148     -26.368  -3.984  23.380  1.00 15.80     0.011 A 
HETATM   24  C3C HEM A 148     -24.761  -9.565  25.068  1.00 14.87     0.011 A 
HETATM   25  C3D HEM A 148     -27.325 -11.770  20.096  1.00 11.87    -0.006 A 
HETATM   26  C4A HEM A 148     -28.327  -6.171  19.747  1.00 15.24     0.079 A 
HETATM   27  C4B HEM A 148     -26.260  -5.436  23.371  1.00 14.44     0.082 A 
HETATM   28  C4C HEM A 148     -25.379  -9.612  23.738  1.00 12.44     0.082 A 
HETATM   29  C4D HEM A 148     -27.493 -10.341  20.112  1.00 11.45     0.079 A 
HETATM   30  NC  HEM A 148     -25.853  -8.370  23.346  1.00 12.45    -0.246 N 
HETATM   31 FE   HEM A 148     -26.640  -7.854  21.584  1.00 11.27     0.000 Fe
ENDROOT
BRANCH  18  32
HETATM   32  CAA HEM A 148     -30.378  -8.181  17.363  1.00 19.59     0.039 C 
BRANCH  32  33
HETATM   33  CBA HEM A 148     -31.805  -8.140  17.877  1.00 31.97     0.102 C 
BRANCH  33  34
HETATM   34  CGA HEM A 148     -32.042  -8.614  19.309  1.00 38.78     0.186 C 
HETATM   35  O1A HEM A 148     -31.863  -9.802  19.592  1.00 41.39    -0.647 OA
HETATM   36  O2A HEM A 148     -32.381  -7.776  20.150  1.00 42.18    -0.647 OA
ENDBRANCH  33  34
ENDBRANCH  32  33
ENDBRANCH  18  32
BRANCH  25  37
HETATM   37  CAD HEM A 148     -27.910 -12.750  19.094  1.00 12.86     0.039 C 
BRANCH  37  38
HETATM   38  CBD HEM A 148     -29.307 -13.257  19.461  1.00 15.48     0.102 C 
BRANCH  38  39
HETATM   39  CGD HEM A 148     -30.406 -12.803  18.521  1.00 16.81     0.186 C 
HETATM   40  O1D HEM A 148     -30.114 -12.097  17.565  1.00 19.28    -0.647 OA
HETATM   41  O2D HEM A 148     -31.563 -13.132  18.759  1.00 20.24    -0.647 OA
ENDBRANCH  38  39
ENDBRANCH  37  38
ENDBRANCH  25  37
BRANCH  23  42
HETATM   42  CAB HEM A 148     -25.856  -3.141  24.367  1.00 15.24    -0.025 C 
HETATM   43  CBB HEM A 148     -26.634  -2.594  25.465  1.00 15.41     0.031 C 
ENDBRANCH  23  42
TORSDOF 7
