REMARK VINA RESULT:      -7.8      3.480      6.490
REMARK  8 active torsions:
REMARK  status: ('A' for Active; 'I' for Inactive)
REMARK    1  A    between atoms: C_5  and  C_8 
REMARK    2  A    between atoms: C_8  and  C_9 
REMARK    3  A    between atoms: C_9  and  C_10 
REMARK    4  A    between atoms: C_15  and  C_18 
REMARK    5  A    between atoms: C_25  and  C_28 
REMARK    6  A    between atoms: C_35  and  C_38 
REMARK    7  A    between atoms: C_38  and  C_39 
REMARK    8  A    between atoms: C_39  and  C_40 
ROOT
HETATM    1  N   UNK     0     -10.070  -1.468  25.750  0.00  0.00    -0.250 N 
HETATM    2  C   UNK     0     -10.379  -0.162  24.294  0.00  0.00     0.061 A 
HETATM    3  C   UNK     0      -9.514  -0.421  22.532  0.00  0.00     0.091 A 
HETATM    4  C   UNK     0     -11.094  -0.870  27.336  0.00  0.00     0.078 A 
HETATM    5  C   UNK     0     -12.035   0.806  26.860  0.00  0.00    -0.007 A 
HETATM    6  C   UNK     0     -11.593   1.243  24.980  0.00  0.00    -0.010 A 
HETATM    7  C   UNK     0     -11.902   2.550  23.525  0.00  0.00     0.032 C 
HETATM    8  N   UNK     0      -8.032  -3.293  23.681  0.00  0.00    -0.254 N 
HETATM    9  C   UNK     0      -8.340  -1.986  22.225  0.00  0.00     0.060 A 
HETATM   10  C   UNK     0      -7.317  -2.584  20.639  0.00  0.00    -0.011 A 
HETATM   11  C   UNK     0      -6.376  -4.260  21.115  0.00  0.00    -0.011 A 
HETATM   12  C   UNK     0      -6.818  -4.698  22.995  0.00  0.00     0.060 A 
HETATM   13  C   UNK     0      -5.511  -4.519  19.353  0.00  0.00     0.032 C 
HETATM   14  C   UNK     0      -5.962  -6.355  23.658  0.00  0.00     0.091 A 
HETATM   15  C   UNK     0     -11.554  -1.351  29.334  0.00  0.00     0.037 A 
HETATM   16  C   UNK     0      -6.284  -6.960  25.516  0.00  0.00     0.060 A 
HETATM   17  N   UNK     0      -7.341  -6.281  27.047  0.00  0.00    -0.254 N 
HETATM   18  C   UNK     0      -5.384  -8.629  26.087  0.00  0.00    -0.011 A 
HETATM   19  C   UNK     0      -5.885  -8.982  27.970  0.00  0.00    -0.011 A 
HETATM   20  C   UNK     0      -7.094  -7.530  28.563  0.00  0.00     0.060 A 
HETATM   21  C   UNK     0      -5.282 -10.516  29.066  0.00  0.00     0.032 C 
HETATM   22  C   UNK     0      -7.959  -7.271  30.325  0.00  0.00     0.091 A 
HETATM   23  C   UNK     0      -9.132  -5.706  30.632  0.00  0.00     0.061 A 
HETATM   24 Fe   UNK     0      -8.837  -3.875  26.734  0.00  0.00     0.000 Fe
HETATM   25  C   UNK     0      -9.997  -5.447  32.394  0.00  0.00    -0.010 A 
HETATM   26  C   UNK     0     -11.078  -3.790  32.308  0.00  0.00    -0.007 A 
HETATM   27  C   UNK     0     -10.881  -3.025  30.492  0.00  0.00     0.078 A 
HETATM   28  N   UNK     0      -9.679  -4.209  29.456  0.00  0.00    -0.250 N 
HETATM   29  C   UNK     0     -10.003  -6.437  34.109  0.00  0.00     0.032 C 
ENDROOT
BRANCH   5  30
HETATM   30  C   UNK     0     -12.900   1.065  28.623  0.00  0.00     0.039 C 
BRANCH  30  31
HETATM   31  C   UNK     0     -14.755   0.437  28.917  0.00  0.00     0.102 C 
BRANCH  31  32
HETATM   32  C   UNK     0     -15.279  -1.394  28.375  0.00  0.00     0.186 C 
HETATM   33  O   UNK     0     -16.771  -2.312  29.298  0.00  0.00    -0.647 OA
HETATM   34  O   UNK     0     -14.310  -2.308  26.909  0.00  0.00    -0.647 OA
ENDBRANCH  31  32
ENDBRANCH  30  31
ENDBRANCH   5  30
BRANCH  26  35
HETATM   35  C   UNK     0     -11.943  -3.531  34.071  0.00  0.00     0.039 C 
BRANCH  35  36
HETATM   36  C   UNK     0     -13.837  -4.047  34.328  0.00  0.00     0.102 C 
BRANCH  36  37
HETATM   37  C   UNK     0     -15.234  -3.304  33.136  0.00  0.00     0.186 C 
HETATM   38  O   UNK     0     -14.845  -1.706  32.032  0.00  0.00    -0.647 OA
HETATM   39  O   UNK     0     -17.019  -4.158  33.049  0.00  0.00    -0.647 OA
ENDBRANCH  36  37
ENDBRANCH  35  36
ENDBRANCH  26  35
BRANCH  10  40
HETATM   40  C   UNK     0      -6.996  -1.979  18.781  0.00  0.00     0.027 C 
HETATM   41  C   UNK     0      -8.045  -2.755  17.292  0.00  0.00     0.005 C 
ENDBRANCH  10  40
BRANCH  18  42
HETATM   42  C   UNK     0      -4.211 -10.195  25.780  0.00  0.00     0.027 C 
HETATM   43  C   UNK     0      -4.913 -11.789  24.839  0.00  0.00     0.005 C 
ENDBRANCH  18  42
TORSDOF 8
