REMARK VINA RESULT:      -7.3      5.653     13.124
REMARK  8 active torsions:
REMARK  status: ('A' for Active; 'I' for Inactive)
REMARK    1  A    between atoms: C_5  and  C_8 
REMARK    2  A    between atoms: C_8  and  C_9 
REMARK    3  A    between atoms: C_9  and  C_10 
REMARK    4  A    between atoms: C_15  and  C_18 
REMARK    5  A    between atoms: C_25  and  C_28 
REMARK    6  A    between atoms: C_35  and  C_38 
REMARK    7  A    between atoms: C_38  and  C_39 
REMARK    8  A    between atoms: C_39  and  C_40 
ROOT
HETATM    1  N   UNK     0      -7.243  -6.427  29.557  0.00  0.00    -0.250 N 
HETATM    2  C   UNK     0      -6.673  -7.463  31.146  0.00  0.00     0.061 A 
HETATM    3  C   UNK     0      -7.556  -7.162  32.893  0.00  0.00     0.091 A 
HETATM    4  C   UNK     0      -6.137  -7.005  28.021  0.00  0.00     0.078 A 
HETATM    5  C   UNK     0      -4.883  -8.399  28.659  0.00  0.00    -0.007 A 
HETATM    6  C   UNK     0      -5.215  -8.682  30.591  0.00  0.00    -0.010 A 
HETATM    7  C   UNK     0      -4.645  -9.718  32.179  0.00  0.00     0.032 C 
HETATM    8  N   UNK     0      -9.578  -4.789  31.463  0.00  0.00    -0.254 N 
HETATM    9  C   UNK     0      -9.008  -5.825  33.051  0.00  0.00     0.060 A 
HETATM   10  C   UNK     0     -10.114  -5.246  34.588  0.00  0.00    -0.011 A 
HETATM   11  C   UNK     0     -11.368  -3.853  33.950  0.00  0.00    -0.011 A 
HETATM   12  C   UNK     0     -11.036  -3.570  32.018  0.00  0.00     0.060 A 
HETATM   13  C   UNK     0     -12.250  -3.552  35.696  0.00  0.00     0.032 C 
HETATM   14  C   UNK     0     -12.203  -2.201  31.193  0.00  0.00     0.091 A 
HETATM   15  C   UNK     0      -5.797  -6.692  25.966  0.00  0.00     0.037 A 
HETATM   16  C   UNK     0     -12.022  -1.776  29.267  0.00  0.00     0.060 A 
HETATM   17  N   UNK     0     -10.867  -2.421  27.793  0.00  0.00    -0.254 N 
HETATM   18  C   UNK     0     -13.234  -0.392  28.534  0.00  0.00    -0.011 A 
HETATM   19  C   UNK     0     -12.828  -0.182  26.607  0.00  0.00    -0.011 A 
HETATM   20  C   UNK     0     -11.365  -1.436  26.149  0.00  0.00     0.060 A 
HETATM   21  C   UNK     0     -13.728   1.063  25.358  0.00  0.00     0.032 C 
HETATM   22  C   UNK     0     -10.483  -1.736  24.403  0.00  0.00     0.091 A 
HETATM   23  C   UNK     0      -9.031  -3.073  24.244  0.00  0.00     0.061 A 
HETATM   24 Fe   UNK     0      -8.930  -4.439  28.338  0.00  0.00     0.000 Fe
HETATM   25  C   UNK     0      -8.148  -3.374  22.498  0.00  0.00    -0.010 A 
HETATM   26  C   UNK     0      -6.765  -4.770  22.743  0.00  0.00    -0.007 A 
HETATM   27  C   UNK     0      -6.793  -5.331  24.642  0.00  0.00     0.078 A 
HETATM   28  N   UNK     0      -8.193  -4.283  25.569  0.00  0.00    -0.250 N 
HETATM   29  C   UNK     0      -8.350  -2.617  20.679  0.00  0.00     0.032 C 
ENDROOT
BRANCH   5  30
HETATM   30  C   UNK     0      -4.001  -8.700  26.912  0.00  0.00     0.039 C 
BRANCH  30  31
HETATM   31  C   UNK     0      -4.524 -10.246  25.791  0.00  0.00     0.102 C 
BRANCH  31  32
HETATM   32  C   UNK     0      -6.378 -10.394  25.111  0.00  0.00     0.186 C 
HETATM   33  O   UNK     0      -7.901  -9.880  26.268  0.00  0.00    -0.647 OA
HETATM   34  O   UNK     0      -6.708 -11.056  23.274  0.00  0.00    -0.647 OA
ENDBRANCH  31  32
ENDBRANCH  30  31
ENDBRANCH   5  30
BRANCH  26  35
HETATM   35  C   UNK     0      -5.882  -5.070  20.995  0.00  0.00     0.039 C 
BRANCH  35  36
HETATM   36  C   UNK     0      -5.874  -6.879  20.190  0.00  0.00     0.102 C 
BRANCH  36  37
HETATM   37  C   UNK     0      -5.150  -8.413  21.213  0.00  0.00     0.186 C 
HETATM   38  O   UNK     0      -5.128 -10.220  20.402  0.00  0.00    -0.647 OA
HETATM   39  O   UNK     0      -4.449  -8.140  23.044  0.00  0.00    -0.647 OA
ENDBRANCH  36  37
ENDBRANCH  35  36
ENDBRANCH  26  35
BRANCH  10  40
HETATM   40  C   UNK     0     -10.295  -5.671  36.514  0.00  0.00     0.027 C 
HETATM   41  C   UNK     0     -11.692  -6.936  37.122  0.00  0.00     0.005 C 
ENDBRANCH  10  40
BRANCH  18  42
HETATM   42  C   UNK     0     -14.686   0.944  28.692  0.00  0.00     0.027 C 
HETATM   43  C   UNK     0     -14.274   2.876  28.554  0.00  0.00     0.005 C 
ENDBRANCH  18  42
TORSDOF 8
