REMARK VINA RESULT:      -7.3      3.484      9.664
REMARK  8 active torsions:
REMARK  status: ('A' for Active; 'I' for Inactive)
REMARK    1  A    between atoms: C_5  and  C_8 
REMARK    2  A    between atoms: C_8  and  C_9 
REMARK    3  A    between atoms: C_9  and  C_10 
REMARK    4  A    between atoms: C_15  and  C_18 
REMARK    5  A    between atoms: C_25  and  C_28 
REMARK    6  A    between atoms: C_35  and  C_38 
REMARK    7  A    between atoms: C_38  and  C_39 
REMARK    8  A    between atoms: C_39  and  C_40 
ROOT
HETATM    1  N   UNK     0     -12.148  -2.238  28.758  0.00  0.00    -0.250 N 
HETATM    2  C   UNK     0     -13.744  -1.067  28.816  0.00  0.00     0.061 A 
HETATM    3  C   UNK     0     -14.788  -0.899  30.490  0.00  0.00     0.091 A 
HETATM    4  C   UNK     0     -11.384  -2.142  26.934  0.00  0.00     0.078 A 
HETATM    5  C   UNK     0     -12.507  -0.911  25.865  0.00  0.00    -0.007 A 
HETATM    6  C   UNK     0     -13.965  -0.246  27.028  0.00  0.00    -0.010 A 
HETATM    7  C   UNK     0     -15.561   0.926  27.086  0.00  0.00     0.032 C 
HETATM    8  N   UNK     0     -12.642  -3.074  32.048  0.00  0.00    -0.254 N 
HETATM    9  C   UNK     0     -14.237  -1.902  32.106  0.00  0.00     0.060 A 
HETATM   10  C   UNK     0     -15.001  -1.999  33.930  0.00  0.00    -0.011 A 
HETATM   11  C   UNK     0     -13.878  -3.230  34.999  0.00  0.00    -0.011 A 
HETATM   12  C   UNK     0     -12.420  -3.895  33.836  0.00  0.00     0.060 A 
HETATM   13  C   UNK     0     -14.923  -3.062  36.672  0.00  0.00     0.032 C 
HETATM   14  C   UNK     0     -11.182  -5.150  34.735  0.00  0.00     0.091 A 
HETATM   15  C   UNK     0      -9.827  -2.858  25.711  0.00  0.00     0.037 A 
HETATM   16  C   UNK     0      -9.658  -5.924  33.735  0.00  0.00     0.060 A 
HETATM   17  N   UNK     0      -8.969  -5.761  31.885  0.00  0.00    -0.254 N 
HETATM   18  C   UNK     0      -8.475  -7.169  34.721  0.00  0.00    -0.011 A 
HETATM   19  C   UNK     0      -7.056  -7.776  33.480  0.00  0.00    -0.011 A 
HETATM   20  C   UNK     0      -7.362  -6.906  31.728  0.00  0.00     0.060 A 
HETATM   21  C   UNK     0      -5.589  -9.033  33.916  0.00  0.00     0.032 C 
HETATM   22  C   UNK     0      -6.317  -7.074  30.055  0.00  0.00     0.091 A 
HETATM   23  C   UNK     0      -6.868  -6.071  28.439  0.00  0.00     0.061 A 
HETATM   24 Fe   UNK     0     -10.336  -4.066  30.047  0.00  0.00     0.000 Fe
HETATM   25  C   UNK     0      -5.823  -6.239  26.765  0.00  0.00    -0.010 A 
HETATM   26  C   UNK     0      -6.679  -5.096  25.392  0.00  0.00    -0.007 A 
HETATM   27  C   UNK     0      -8.252  -4.222  26.218  0.00  0.00     0.078 A 
HETATM   28  N   UNK     0      -8.369  -4.824  28.100  0.00  0.00    -0.250 N 
HETATM   29  C   UNK     0      -4.209  -7.246  26.218  0.00  0.00     0.032 C 
ENDROOT
BRANCH   5  30
HETATM   30  C   UNK     0     -11.463  -1.079  24.191  0.00  0.00     0.039 C 
BRANCH  30  31
HETATM   31  C   UNK     0     -11.048   0.532  23.116  0.00  0.00     0.102 C 
BRANCH  31  32
HETATM   32  C   UNK     0     -11.468   2.332  23.827  0.00  0.00     0.186 C 
HETATM   33  O   UNK     0     -11.811   3.833  22.583  0.00  0.00    -0.647 OA
HETATM   34  O   UNK     0     -11.543   2.631  25.783  0.00  0.00    -0.647 OA
ENDBRANCH  31  32
ENDBRANCH  30  31
ENDBRANCH   5  30
BRANCH  26  35
HETATM   35  C   UNK     0      -5.634  -5.265  23.718  0.00  0.00     0.039 C 
BRANCH  35  36
HETATM   36  C   UNK     0      -6.401  -4.632  22.006  0.00  0.00     0.102 C 
BRANCH  36  37
HETATM   37  C   UNK     0      -7.668  -3.109  21.993  0.00  0.00     0.186 C 
HETATM   38  O   UNK     0      -9.619  -3.446  21.999  0.00  0.00    -0.647 OA
HETATM   39  O   UNK     0      -6.983  -1.251  21.974  0.00  0.00    -0.647 OA
ENDBRANCH  36  37
ENDBRANCH  35  36
ENDBRANCH  26  35
BRANCH  10  40
HETATM   40  C   UNK     0     -16.526  -1.225  34.930  0.00  0.00     0.027 C 
HETATM   41  C   UNK     0     -16.298   0.471  35.927  0.00  0.00     0.005 C 
ENDBRANCH  10  40
BRANCH  18  42
HETATM   42  C   UNK     0      -7.924  -8.173  36.336  0.00  0.00     0.027 C 
HETATM   43  C   UNK     0      -8.296 -10.113  36.472  0.00  0.00     0.005 C 
ENDBRANCH  18  42
TORSDOF 8
