REMARK VINA RESULT:      -8.2      0.000      0.000
REMARK  7 active torsions:
REMARK  status: ('A' for Active; 'I' for Inactive)
REMARK    1  A    between atoms: CAA_1  and  CBA_6 
REMARK    2  A    between atoms: CAA_1  and  C2A_28 
REMARK    3  A    between atoms: CAB_2  and  C3B_35 
REMARK    4  A    between atoms: CAD_4  and  CBD_9 
REMARK    5  A    between atoms: CAD_4  and  C3D_37 
REMARK    6  A    between atoms: CBA_6  and  CGA_11 
REMARK    7  A    between atoms: CBD_9  and  CGD_12 
ROOT
HETATM    1  CAC HEM A 148     -25.241 -11.075  23.457  1.00 17.51    -0.025 C 
HETATM    2  NA  HEM A 148     -28.786  -6.000  19.214  1.00 13.88    -0.246 N 
HETATM    3  CBC HEM A 148     -25.720 -12.407  23.119  1.00 22.56     0.031 C 
HETATM    4  NB  HEM A 148     -27.297  -5.364  21.456  1.00 13.06    -0.246 N 
HETATM    5  ND  HEM A 148     -28.157  -8.683  19.536  1.00 11.97    -0.246 N 
HETATM    6  CHA HEM A 148     -29.623  -7.805  17.814  1.00 12.79     0.038 C 
HETATM    7  CHB HEM A 148     -28.443  -3.735  20.066  1.00 14.03     0.038 C 
HETATM    8  CHC HEM A 148     -26.233  -6.312  23.435  1.00 14.68     0.038 A 
HETATM    9  CHD HEM A 148     -26.980 -10.308  20.909  1.00 11.42     0.038 C 
HETATM   10  CMA HEM A 148     -30.574  -2.889  18.015  1.00 16.75     0.032 C 
HETATM   11  CMB HEM A 148     -27.246  -1.593  21.959  1.00 11.97     0.033 C 
HETATM   12  CMC HEM A 148     -25.143  -8.647  25.259  1.00 15.35     0.033 C 
HETATM   13  CMD HEM A 148     -28.083 -12.428  18.921  1.00 12.06     0.032 C 
HETATM   14  C1A HEM A 148     -29.582  -6.482  18.199  1.00 13.87     0.079 A 
HETATM   15  C1B HEM A 148     -27.613  -4.067  21.112  1.00 14.21     0.079 A 
HETATM   16  C1C HEM A 148     -26.300  -7.641  23.072  1.00 12.26     0.079 A 
HETATM   17  C1D HEM A 148     -27.757  -9.966  19.833  1.00 11.83     0.079 A 
HETATM   18  C2A HEM A 148     -30.416  -5.434  17.638  1.00 18.04    -0.006 A 
HETATM   19  C2B HEM A 148     -27.107  -3.113  22.073  1.00 14.05    -0.003 A 
HETATM   20  C2C HEM A 148     -25.738  -8.728  23.852  1.00 15.15    -0.003 A 
HETATM   21  C2D HEM A 148     -28.307 -10.922  18.913  1.00 12.69    -0.007 A 
HETATM   22  C3A HEM A 148     -30.043  -4.292  18.262  1.00 15.63    -0.007 A 
HETATM   23  C3B HEM A 148     -26.495  -3.843  23.054  1.00 15.80     0.011 A 
HETATM   24  C3C HEM A 148     -25.836  -9.855  23.108  1.00 14.87     0.011 A 
HETATM   25  C3D HEM A 148     -29.058 -10.219  18.045  1.00 11.87    -0.006 A 
HETATM   26  C4A HEM A 148     -29.039  -4.643  19.220  1.00 15.24     0.079 A 
HETATM   27  C4B HEM A 148     -26.654  -5.238  22.670  1.00 14.44     0.082 A 
HETATM   28  C4C HEM A 148     -26.532  -9.447  21.882  1.00 12.44     0.082 A 
HETATM   29  C4D HEM A 148     -28.961  -8.838  18.437  1.00 11.45     0.079 A 
HETATM   30  NC  HEM A 148     -26.794  -8.086  21.867  1.00 12.45    -0.246 N 
HETATM   31 FE   HEM A 148     -27.579  -7.002  20.385  1.00 11.27     0.000 Fe
ENDROOT
BRANCH  18  32
HETATM   32  CAA HEM A 148     -31.565  -5.591  16.640  1.00 19.59     0.039 C 
BRANCH  32  33
HETATM   33  CBA HEM A 148     -32.910  -5.746  17.324  1.00 31.97     0.102 C 
BRANCH  33  34
HETATM   34  CGA HEM A 148     -33.319  -7.157  17.744  1.00 38.78     0.186 C 
HETATM   35  O1A HEM A 148     -33.959  -7.317  18.787  1.00 41.39    -0.647 OA
HETATM   36  O2A HEM A 148     -33.016  -8.095  17.002  1.00 42.18    -0.647 OA
ENDBRANCH  33  34
ENDBRANCH  32  33
ENDBRANCH  18  32
BRANCH  25  37
HETATM   37  CAD HEM A 148     -29.873 -10.790  16.897  1.00 12.86     0.039 C 
BRANCH  37  38
HETATM   38  CBD HEM A 148     -29.225 -10.610  15.522  1.00 15.48     0.102 C 
BRANCH  38  39
HETATM   39  CGD HEM A 148     -30.148 -10.035  14.465  1.00 16.81     0.186 C 
HETATM   40  O1D HEM A 148     -30.727  -8.982  14.693  1.00 19.28    -0.647 OA
HETATM   41  O2D HEM A 148     -30.311 -10.657  13.420  1.00 20.24    -0.647 OA
ENDBRANCH  38  39
ENDBRANCH  37  38
ENDBRANCH  25  37
BRANCH  23  42
HETATM   42  CAB HEM A 148     -25.778  -3.386  24.161  1.00 15.24    -0.025 C 
HETATM   43  CBB HEM A 148     -26.378  -2.994  25.425  1.00 15.41     0.031 C 
ENDBRANCH  23  42
TORSDOF 7
