REMARK VINA RESULT:      -9.1      0.000      0.000
REMARK  8 active torsions:
REMARK  status: ('A' for Active; 'I' for Inactive)
REMARK    1  A    between atoms: C_5  and  C_8 
REMARK    2  A    between atoms: C_8  and  C_9 
REMARK    3  A    between atoms: C_9  and  C_10 
REMARK    4  A    between atoms: C_15  and  C_18 
REMARK    5  A    between atoms: C_25  and  C_28 
REMARK    6  A    between atoms: C_35  and  C_38 
REMARK    7  A    between atoms: C_38  and  C_39 
REMARK    8  A    between atoms: C_39  and  C_40 
ROOT
HETATM    1  N   UNK     0     -11.695  -2.559  28.261  0.00  0.00    -0.250 N 
HETATM    2  C   UNK     0     -11.089  -2.164  26.418  0.00  0.00     0.061 A 
HETATM    3  C   UNK     0      -9.548  -3.141  25.651  0.00  0.00     0.091 A 
HETATM    4  C   UNK     0     -13.242  -1.391  28.661  0.00  0.00     0.078 A 
HETATM    5  C   UNK     0     -13.593  -0.273  27.065  0.00  0.00    -0.007 A 
HETATM    6  C   UNK     0     -12.262  -0.750  25.679  0.00  0.00    -0.010 A 
HETATM    7  C   UNK     0     -11.657  -0.355  23.836  0.00  0.00     0.032 C 
HETATM    8  N   UNK     0      -9.217  -4.911  28.571  0.00  0.00    -0.254 N 
HETATM    9  C   UNK     0      -8.611  -4.515  26.727  0.00  0.00     0.060 A 
HETATM   10  C   UNK     0      -7.064  -5.684  26.327  0.00  0.00    -0.011 A 
HETATM   11  C   UNK     0      -6.713  -6.802  27.924  0.00  0.00    -0.011 A 
HETATM   12  C   UNK     0      -8.044  -6.324  29.310  0.00  0.00     0.060 A 
HETATM   13  C   UNK     0      -5.172  -7.779  27.157  0.00  0.00     0.032 C 
HETATM   14  C   UNK     0      -7.853  -7.345  30.995  0.00  0.00     0.091 A 
HETATM   15  C   UNK     0     -14.650  -0.895  30.147  0.00  0.00     0.037 A 
HETATM   16  C   UNK     0      -9.092  -7.009  32.502  0.00  0.00     0.060 A 
HETATM   17  N   UNK     0     -10.631  -5.800  32.807  0.00  0.00    -0.254 N 
HETATM   18  C   UNK     0      -8.821  -8.080  34.145  0.00  0.00    -0.011 A 
HETATM   19  C   UNK     0     -10.192  -7.534  35.466  0.00  0.00    -0.011 A 
HETATM   20  C   UNK     0     -11.311  -6.124  34.638  0.00  0.00     0.060 A 
HETATM   21  C   UNK     0     -10.406  -8.268  37.292  0.00  0.00     0.032 C 
HETATM   22  C   UNK     0     -12.852  -5.147  35.405  0.00  0.00     0.091 A 
HETATM   23  C   UNK     0     -13.788  -3.774  34.329  0.00  0.00     0.061 A 
HETATM   24 Fe   UNK     0     -11.435  -4.033  30.720  0.00  0.00     0.000 Fe
HETATM   25  C   UNK     0     -15.330  -2.796  35.096  0.00  0.00    -0.010 A 
HETATM   26  C   UNK     0     -15.988  -1.522  33.730  0.00  0.00    -0.007 A 
HETATM   27  C   UNK     0     -14.853  -1.713  32.119  0.00  0.00     0.078 A 
HETATM   28  N   UNK     0     -13.493  -3.104  32.489  0.00  0.00    -0.250 N 
HETATM   29  C   UNK     0     -16.285  -2.827  36.831  0.00  0.00     0.032 C 
ENDROOT
BRANCH   5  30
HETATM   30  C   UNK     0     -15.135   0.705  27.832  0.00  0.00     0.039 C 
BRANCH  30  31
HETATM   31  C   UNK     0     -15.514   2.563  27.260  0.00  0.00     0.102 C 
BRANCH  31  32
HETATM   32  C   UNK     0     -14.100   3.636  26.382  0.00  0.00     0.186 C 
HETATM   33  O   UNK     0     -14.131   3.898  24.419  0.00  0.00    -0.647 OA
HETATM   34  O   UNK     0     -12.655   4.447  27.466  0.00  0.00    -0.647 OA
ENDBRANCH  31  32
ENDBRANCH  30  31
ENDBRANCH   5  30
BRANCH  26  35
HETATM   35  C   UNK     0     -17.530  -0.544  34.498  0.00  0.00     0.039 C 
BRANCH  35  36
HETATM   36  C   UNK     0     -19.375  -1.055  33.992  0.00  0.00     0.102 C 
BRANCH  36  37
HETATM   37  C   UNK     0     -20.123  -2.786  34.598  0.00  0.00     0.186 C 
HETATM   38  O   UNK     0     -21.404  -2.836  36.107  0.00  0.00    -0.647 OA
HETATM   39  O   UNK     0     -19.590  -4.466  33.695  0.00  0.00    -0.647 OA
ENDBRANCH  36  37
ENDBRANCH  35  36
ENDBRANCH  26  35
BRANCH  10  40
HETATM   40  C   UNK     0      -5.824  -6.019  24.820  0.00  0.00     0.027 C 
HETATM   41  C   UNK     0      -6.208  -7.469  23.526  0.00  0.00     0.005 C 
ENDBRANCH  10  40
BRANCH  18  42
HETATM   42  C   UNK     0      -7.885  -9.454  35.222  0.00  0.00     0.027 C 
HETATM   43  C   UNK     0      -6.716  -8.908  36.723  0.00  0.00     0.005 C 
ENDBRANCH  18  42
TORSDOF 8
