REMARK VINA RESULT:      -8.0      1.698      9.264
REMARK  8 active torsions:
REMARK  status: ('A' for Active; 'I' for Inactive)
REMARK    1  A    between atoms: C_5  and  C_8 
REMARK    2  A    between atoms: C_8  and  C_9 
REMARK    3  A    between atoms: C_9  and  C_10 
REMARK    4  A    between atoms: C_15  and  C_18 
REMARK    5  A    between atoms: C_25  and  C_28 
REMARK    6  A    between atoms: C_35  and  C_38 
REMARK    7  A    between atoms: C_38  and  C_39 
REMARK    8  A    between atoms: C_39  and  C_40 
ROOT
HETATM    1  N   UNK     0     -11.759  -4.831  33.298  0.00  0.00    -0.250 N 
HETATM    2  C   UNK     0     -11.936  -5.674  35.081  0.00  0.00     0.061 A 
HETATM    3  C   UNK     0     -10.508  -6.867  35.758  0.00  0.00     0.091 A 
HETATM    4  C   UNK     0     -13.369  -3.724  32.981  0.00  0.00     0.078 A 
HETATM    5  C   UNK     0     -14.542  -3.882  34.569  0.00  0.00    -0.007 A 
HETATM    6  C   UNK     0     -13.656  -5.087  35.866  0.00  0.00    -0.010 A 
HETATM    7  C   UNK     0     -13.834  -5.930  37.649  0.00  0.00     0.032 C 
HETATM    8  N   UNK     0      -8.725  -6.374  32.870  0.00  0.00    -0.254 N 
HETATM    9  C   UNK     0      -8.903  -7.217  34.653  0.00  0.00     0.060 A 
HETATM   10  C   UNK     0      -7.292  -8.324  34.970  0.00  0.00    -0.011 A 
HETATM   11  C   UNK     0      -6.119  -8.166  33.382  0.00  0.00    -0.011 A 
HETATM   12  C   UNK     0      -7.005  -6.960  32.085  0.00  0.00     0.060 A 
HETATM   13  C   UNK     0      -4.692  -9.358  34.060  0.00  0.00     0.032 C 
HETATM   14  C   UNK     0      -5.976  -6.676  30.418  0.00  0.00     0.091 A 
HETATM   15  C   UNK     0     -14.297  -2.444  31.590  0.00  0.00     0.037 A 
HETATM   16  C   UNK     0      -6.697  -5.501  28.997  0.00  0.00     0.060 A 
HETATM   17  N   UNK     0      -8.343  -4.422  28.774  0.00  0.00    -0.254 N 
HETATM   18  C   UNK     0      -5.595  -5.279  27.367  0.00  0.00    -0.011 A 
HETATM   19  C   UNK     0      -6.559  -4.063  26.137  0.00  0.00    -0.011 A 
HETATM   20  C   UNK     0      -8.258  -3.534  27.006  0.00  0.00     0.060 A 
HETATM   21  C   UNK     0      -5.934  -3.480  24.351  0.00  0.00     0.032 C 
HETATM   22  C   UNK     0      -9.685  -2.341  26.329  0.00  0.00     0.091 A 
HETATM   23  C   UNK     0     -11.290  -1.991  27.434  0.00  0.00     0.061 A 
HETATM   24 Fe   UNK     0     -10.278  -4.404  30.866  0.00  0.00     0.000 Fe
HETATM   25  C   UNK     0     -12.718  -0.798  26.756  0.00  0.00    -0.010 A 
HETATM   26  C   UNK     0     -14.139  -0.700  28.132  0.00  0.00    -0.007 A 
HETATM   27  C   UNK     0     -13.588  -1.833  29.661  0.00  0.00     0.078 A 
HETATM   28  N   UNK     0     -11.829  -2.630  29.229  0.00  0.00    -0.250 N 
HETATM   29  C   UNK     0     -13.000   0.246  25.097  0.00  0.00     0.032 C 
ENDROOT
BRANCH   5  30
HETATM   30  C   UNK     0     -15.970  -2.689  33.891  0.00  0.00     0.039 C 
BRANCH  30  31
HETATM   31  C   UNK     0     -17.331  -3.388  32.634  0.00  0.00     0.102 C 
BRANCH  31  32
HETATM   32  C   UNK     0     -19.200  -3.643  33.239  0.00  0.00     0.186 C 
HETATM   33  O   UNK     0     -20.241  -2.100  33.914  0.00  0.00    -0.647 OA
HETATM   34  O   UNK     0     -20.026  -5.441  33.169  0.00  0.00    -0.647 OA
ENDBRANCH  31  32
ENDBRANCH  30  31
ENDBRANCH   5  30
BRANCH  26  35
HETATM   35  C   UNK     0     -15.567   0.493  27.454  0.00  0.00     0.039 C 
BRANCH  35  36
HETATM   36  C   UNK     0     -15.290   2.453  27.433  0.00  0.00     0.102 C 
BRANCH  36  37
HETATM   37  C   UNK     0     -13.531   3.209  27.943  0.00  0.00     0.186 C 
HETATM   38  O   UNK     0     -12.021   3.149  26.663  0.00  0.00    -0.647 OA
HETATM   39  O   UNK     0     -13.284   4.022  29.731  0.00  0.00    -0.647 OA
ENDBRANCH  36  37
ENDBRANCH  35  36
ENDBRANCH  26  35
BRANCH  10  40
HETATM   40  C   UNK     0      -6.570  -9.500  36.391  0.00  0.00     0.027 C 
HETATM   41  C   UNK     0      -7.279 -11.335  36.613  0.00  0.00     0.005 C 
ENDBRANCH  10  40
BRANCH  18  42
HETATM   42  C   UNK     0      -3.990  -5.629  26.262  0.00  0.00     0.027 C 
HETATM   43  C   UNK     0      -4.047  -7.005  24.840  0.00  0.00     0.005 C 
ENDBRANCH  18  42
TORSDOF 8
