REMARK VINA RESULT:      -8.2      3.938     10.267
REMARK  8 active torsions:
REMARK  status: ('A' for Active; 'I' for Inactive)
REMARK    1  A    between atoms: C_5  and  C_8 
REMARK    2  A    between atoms: C_8  and  C_9 
REMARK    3  A    between atoms: C_9  and  C_10 
REMARK    4  A    between atoms: C_15  and  C_18 
REMARK    5  A    between atoms: C_25  and  C_28 
REMARK    6  A    between atoms: C_35  and  C_38 
REMARK    7  A    between atoms: C_38  and  C_39 
REMARK    8  A    between atoms: C_39  and  C_40 
ROOT
HETATM    1  N   UNK     0      -9.136  -4.684  27.741  0.00  0.00    -0.250 N 
HETATM    2  C   UNK     0      -8.878  -6.119  29.081  0.00  0.00     0.061 A 
HETATM    3  C   UNK     0      -7.717  -7.667  28.663  0.00  0.00     0.091 A 
HETATM    4  C   UNK     0     -10.349  -3.328  28.521  0.00  0.00     0.078 A 
HETATM    5  C   UNK     0     -10.842  -3.924  30.344  0.00  0.00    -0.007 A 
HETATM    6  C   UNK     0      -9.933  -5.649  30.690  0.00  0.00    -0.010 A 
HETATM    7  C   UNK     0      -9.675  -7.083  32.030  0.00  0.00     0.032 C 
HETATM    8  N   UNK     0      -7.071  -6.348  25.565  0.00  0.00    -0.254 N 
HETATM    9  C   UNK     0      -6.813  -7.782  26.905  0.00  0.00     0.060 A 
HETATM   10  C   UNK     0      -5.600  -9.138  26.125  0.00  0.00    -0.011 A 
HETATM   11  C   UNK     0      -5.108  -8.542  24.302  0.00  0.00    -0.011 A 
HETATM   12  C   UNK     0      -6.017  -6.817  23.956  0.00  0.00     0.060 A 
HETATM   13  C   UNK     0      -3.947 -10.090  23.885  0.00  0.00     0.032 C 
HETATM   14  C   UNK     0      -5.643  -6.056  22.167  0.00  0.00     0.091 A 
HETATM   15  C   UNK     0     -11.308  -1.493  28.136  0.00  0.00     0.037 A 
HETATM   16  C   UNK     0      -6.462  -4.333  21.634  0.00  0.00     0.060 A 
HETATM   17  N   UNK     0      -7.681  -3.034  22.501  0.00  0.00    -0.254 N 
HETATM   18  C   UNK     0      -6.029  -3.653  19.826  0.00  0.00    -0.011 A 
HETATM   19  C   UNK     0      -6.979  -1.934  19.574  0.00  0.00    -0.011 A 
HETATM   20  C   UNK     0      -8.000  -1.552  21.228  0.00  0.00     0.060 A 
HETATM   21  C   UNK     0      -6.919  -0.797  17.955  0.00  0.00     0.032 C 
HETATM   22  C   UNK     0      -9.161  -0.003  21.645  0.00  0.00     0.091 A 
HETATM   23  C   UNK     0     -10.065   0.111  23.403  0.00  0.00     0.061 A 
HETATM   24 Fe   UNK     0      -8.606  -3.559  25.145  0.00  0.00     0.000 Fe
HETATM   25  C   UNK     0     -11.226   1.660  23.821  0.00  0.00    -0.010 A 
HETATM   26  C   UNK     0     -11.940   1.414  25.652  0.00  0.00    -0.007 A 
HETATM   27  C   UNK     0     -11.219  -0.287  26.365  0.00  0.00     0.078 A 
HETATM   28  N   UNK     0     -10.061  -1.092  24.976  0.00  0.00    -0.250 N 
HETATM   29  C   UNK     0     -11.783   3.294  22.851  0.00  0.00     0.032 C 
ENDROOT
BRANCH   5  30
HETATM   30  C   UNK     0     -12.003  -2.375  30.762  0.00  0.00     0.039 C 
BRANCH  30  31
HETATM   31  C   UNK     0     -13.947  -2.639  31.026  0.00  0.00     0.102 C 
BRANCH  31  32
HETATM   32  C   UNK     0     -15.137  -2.870  29.460  0.00  0.00     0.186 C 
HETATM   33  O   UNK     0     -14.404  -3.547  27.750  0.00  0.00    -0.647 OA
HETATM   34  O   UNK     0     -17.061  -2.423  29.604  0.00  0.00    -0.647 OA
ENDBRANCH  31  32
ENDBRANCH  30  31
ENDBRANCH   5  30
BRANCH  26  35
HETATM   35  C   UNK     0     -13.101   2.963  26.069  0.00  0.00     0.039 C 
BRANCH  35  36
HETATM   36  C   UNK     0     -14.843   2.679  26.966  0.00  0.00     0.102 C 
BRANCH  36  37
HETATM   37  C   UNK     0     -15.192   0.988  27.936  0.00  0.00     0.186 C 
HETATM   38  O   UNK     0     -16.322  -0.412  27.107  0.00  0.00    -0.647 OA
HETATM   39  O   UNK     0     -14.411   0.697  29.732  0.00  0.00    -0.647 OA
ENDBRANCH  36  37
ENDBRANCH  35  36
ENDBRANCH  26  35
BRANCH  10  40
HETATM   40  C   UNK     0      -4.781 -10.861  26.658  0.00  0.00     0.027 C 
HETATM   41  C   UNK     0      -4.252 -11.164  28.542  0.00  0.00     0.005 C 
ENDBRANCH  10  40
BRANCH  18  42
HETATM   42  C   UNK     0      -5.125  -3.767  18.068  0.00  0.00     0.027 C 
HETATM   43  C   UNK     0      -6.175  -4.176  16.439  0.00  0.00     0.005 C 
ENDBRANCH  18  42
TORSDOF 8
