REMARK VINA RESULT:      -7.5      3.808      7.617
REMARK  7 active torsions:
REMARK  status: ('A' for Active; 'I' for Inactive)
REMARK    1  A    between atoms: CAA_1  and  CBA_6 
REMARK    2  A    between atoms: CAA_1  and  C2A_28 
REMARK    3  A    between atoms: CAB_2  and  C3B_35 
REMARK    4  A    between atoms: CAD_4  and  CBD_9 
REMARK    5  A    between atoms: CAD_4  and  C3D_37 
REMARK    6  A    between atoms: CBA_6  and  CGA_11 
REMARK    7  A    between atoms: CBD_9  and  CGD_12 
ROOT
HETATM    1  CAC HEM A 148     -28.481 -12.550  18.469  1.00 17.51    -0.025 C 
HETATM    2  NA  HEM A 148     -27.523  -5.885  21.782  1.00 13.88    -0.246 N 
HETATM    3  CBC HEM A 148     -27.506 -13.496  18.993  1.00 22.56     0.031 C 
HETATM    4  NB  HEM A 148     -29.058  -6.272  19.514  1.00 13.06    -0.246 N 
HETATM    5  ND  HEM A 148     -26.969  -8.601  21.891  1.00 11.97    -0.246 N 
HETATM    6  CHA HEM A 148     -26.065  -6.945  23.416  1.00 12.79     0.038 C 
HETATM    7  CHB HEM A 148     -28.744  -4.125  20.605  1.00 14.03     0.038 C 
HETATM    8  CHC HEM A 148     -29.558  -7.863  17.735  1.00 14.68     0.038 A 
HETATM    9  CHD HEM A 148     -27.314 -10.755  20.818  1.00 11.42     0.038 C 
HETATM   10  CMA HEM A 148     -27.234  -2.170  22.439  1.00 16.75     0.032 C 
HETATM   11  CMB HEM A 148     -30.651  -2.987  18.443  1.00 11.97     0.033 C 
HETATM   12  CMC HEM A 148     -29.512 -10.686  16.322  1.00 15.35     0.033 C 
HETATM   13  CMD HEM A 148     -25.505 -11.898  23.072  1.00 12.06     0.032 C 
HETATM   14  C1A HEM A 148     -26.637  -5.833  22.835  1.00 13.87     0.079 A 
HETATM   15  C1B HEM A 148     -29.322  -4.925  19.647  1.00 14.21     0.079 A 
HETATM   16  C1C HEM A 148     -28.959  -8.973  18.294  1.00 12.26     0.079 A 
HETATM   17  C1D HEM A 148     -26.789  -9.963  21.806  1.00 11.83     0.079 A 
HETATM   18  C2A HEM A 148     -26.335  -4.462  23.204  1.00 18.04    -0.006 A 
HETATM   19  C2B HEM A 148     -30.143  -4.425  18.567  1.00 14.05    -0.003 A 
HETATM   20  C2C HEM A 148     -28.990 -10.299  17.706  1.00 15.15    -0.003 A 
HETATM   21  C2D HEM A 148     -25.927 -10.453  22.845  1.00 12.69    -0.007 A 
HETATM   22  C3A HEM A 148     -27.125  -3.686  22.425  1.00 15.63    -0.007 A 
HETATM   23  C3B HEM A 148     -30.359  -5.483  17.727  1.00 15.80     0.011 A 
HETATM   24  C3C HEM A 148     -28.460 -11.157  18.610  1.00 14.87     0.011 A 
HETATM   25  C3D HEM A 148     -25.568  -9.379  23.573  1.00 11.87    -0.006 A 
HETATM   26  C4A HEM A 148     -27.857  -4.564  21.562  1.00 15.24     0.079 A 
HETATM   27  C4B HEM A 148     -29.649  -6.609  18.314  1.00 14.44     0.082 A 
HETATM   28  C4C HEM A 148     -28.042 -10.317  19.739  1.00 12.44     0.082 A 
HETATM   29  C4D HEM A 148     -26.215  -8.240  22.978  1.00 11.45     0.079 A 
HETATM   30  NC  HEM A 148     -28.370  -8.984  19.538  1.00 12.45    -0.246 N 
HETATM   31 FE   HEM A 148     -28.161  -7.462  20.813  1.00 11.27     0.000 Fe
ENDROOT
BRANCH  18  32
HETATM   32  CAA HEM A 148     -25.262  -3.974  24.180  1.00 19.59     0.039 C 
BRANCH  32  33
HETATM   33  CBA HEM A 148     -25.783  -3.851  25.600  1.00 31.97     0.102 C 
BRANCH  33  34
HETATM   34  CGA HEM A 148     -25.331  -4.912  26.602  1.00 38.78     0.186 C 
HETATM   35  O1A HEM A 148     -25.984  -5.086  27.635  1.00 41.39    -0.647 OA
HETATM   36  O2A HEM A 148     -24.334  -5.584  26.326  1.00 42.18    -0.647 OA
ENDBRANCH  33  34
ENDBRANCH  32  33
ENDBRANCH  18  32
BRANCH  25  37
HETATM   37  CAD HEM A 148     -24.632  -9.380  24.769  1.00 12.86     0.039 C 
BRANCH  37  38
HETATM   38  CBD HEM A 148     -25.284  -9.857  26.070  1.00 15.48     0.102 C 
BRANCH  38  39
HETATM   39  CGD HEM A 148     -25.830  -8.744  26.943  1.00 16.81     0.186 C 
HETATM   40  O1D HEM A 148     -25.206  -8.414  27.942  1.00 19.28    -0.647 OA
HETATM   41  O2D HEM A 148     -26.898  -8.223  26.639  1.00 20.24    -0.647 OA
ENDBRANCH  38  39
ENDBRANCH  37  38
ENDBRANCH  25  37
BRANCH  23  42
HETATM   42  CAB HEM A 148     -31.159  -5.538  16.585  1.00 15.24    -0.025 C 
HETATM   43  CBB HEM A 148     -31.028  -4.647  15.445  1.00 15.41     0.031 C 
ENDBRANCH  23  42
TORSDOF 7
