REMARK VINA RESULT:      -7.3      4.029      9.909
REMARK  8 active torsions:
REMARK  status: ('A' for Active; 'I' for Inactive)
REMARK    1  A    between atoms: C_5  and  C_8 
REMARK    2  A    between atoms: C_8  and  C_9 
REMARK    3  A    between atoms: C_9  and  C_10 
REMARK    4  A    between atoms: C_15  and  C_18 
REMARK    5  A    between atoms: C_25  and  C_28 
REMARK    6  A    between atoms: C_35  and  C_38 
REMARK    7  A    between atoms: C_38  and  C_39 
REMARK    8  A    between atoms: C_39  and  C_40 
ROOT
HETATM    1  N   UNK     0      -8.526  -4.512  26.846  0.00  0.00    -0.250 N 
HETATM    2  C   UNK     0      -7.256  -5.738  25.949  0.00  0.00     0.061 A 
HETATM    3  C   UNK     0      -6.634  -5.348  24.110  0.00  0.00     0.091 A 
HETATM    4  C   UNK     0      -8.904  -5.235  28.650  0.00  0.00     0.078 A 
HETATM    5  C   UNK     0      -7.867  -6.907  28.869  0.00  0.00    -0.007 A 
HETATM    6  C   UNK     0      -6.848  -7.218  27.199  0.00  0.00    -0.010 A 
HETATM    7  C   UNK     0      -5.577  -8.444  26.303  0.00  0.00     0.032 C 
HETATM    8  N   UNK     0      -8.554  -2.506  24.064  0.00  0.00    -0.254 N 
HETATM    9  C   UNK     0      -7.284  -3.732  23.167  0.00  0.00     0.060 A 
HETATM   10  C   UNK     0      -6.906  -3.009  21.363  0.00  0.00    -0.011 A 
HETATM   11  C   UNK     0      -7.943  -1.337  21.144  0.00  0.00    -0.011 A 
HETATM   12  C   UNK     0      -8.962  -1.026  22.813  0.00  0.00     0.060 A 
HETATM   13  C   UNK     0      -7.322  -0.947  19.306  0.00  0.00     0.032 C 
HETATM   14  C   UNK     0     -10.070   0.614  22.786  0.00  0.00     0.091 A 
HETATM   15  C   UNK     0      -9.994  -4.889  30.418  0.00  0.00     0.037 A 
HETATM   16  C   UNK     0     -11.163   1.097  24.366  0.00  0.00     0.060 A 
HETATM   17  N   UNK     0     -11.476   0.295  26.150  0.00  0.00    -0.254 N 
HETATM   18  C   UNK     0     -12.237   2.755  24.244  0.00  0.00    -0.011 A 
HETATM   19  C   UNK     0     -13.215   2.979  25.951  0.00  0.00    -0.011 A 
HETATM   20  C   UNK     0     -12.744   1.458  27.129  0.00  0.00     0.060 A 
HETATM   21  C   UNK     0     -14.446   4.463  26.401  0.00  0.00     0.032 C 
HETATM   22  C   UNK     0     -13.366   1.069  28.968  0.00  0.00     0.091 A 
HETATM   23  C   UNK     0     -12.717  -0.547  29.910  0.00  0.00     0.061 A 
HETATM   24 Fe   UNK     0     -10.145  -2.132  26.828  0.00  0.00     0.000 Fe
HETATM   25  C   UNK     0     -13.338  -0.937  31.750  0.00  0.00    -0.010 A 
HETATM   26  C   UNK     0     -12.476  -2.619  32.344  0.00  0.00    -0.007 A 
HETATM   27  C   UNK     0     -11.321  -3.267  30.871  0.00  0.00     0.078 A 
HETATM   28  N   UNK     0     -11.470  -1.987  29.368  0.00  0.00    -0.250 N 
HETATM   29  C   UNK     0     -14.562  -0.053  33.031  0.00  0.00     0.032 C 
ENDROOT
BRANCH   5  30
HETATM   30  C   UNK     0      -8.488  -7.297  30.708  0.00  0.00     0.039 C 
BRANCH  30  31
HETATM   31  C   UNK     0      -7.326  -6.878  32.256  0.00  0.00     0.102 C 
BRANCH  31  32
HETATM   32  C   UNK     0      -7.604  -7.807  33.983  0.00  0.00     0.186 C 
HETATM   33  O   UNK     0      -8.697  -6.958  35.399  0.00  0.00    -0.647 OA
HETATM   34  O   UNK     0      -6.788  -9.584  34.294  0.00  0.00    -0.647 OA
ENDBRANCH  31  32
ENDBRANCH  30  31
ENDBRANCH   5  30
BRANCH  26  35
HETATM   35  C   UNK     0     -13.098  -3.008  34.183  0.00  0.00     0.039 C 
BRANCH  35  36
HETATM   36  C   UNK     0     -14.823  -3.938  34.467  0.00  0.00     0.102 C 
BRANCH  36  37
HETATM   37  C   UNK     0     -16.221  -3.878  33.065  0.00  0.00     0.186 C 
HETATM   38  O   UNK     0     -18.101  -4.297  33.524  0.00  0.00    -0.647 OA
HETATM   39  O   UNK     0     -15.738  -3.400  31.205  0.00  0.00    -0.647 OA
ENDBRANCH  36  37
ENDBRANCH  35  36
ENDBRANCH  26  35
BRANCH  10  40
HETATM   40  C   UNK     0      -5.813  -3.492  19.783  0.00  0.00     0.027 C 
HETATM   41  C   UNK     0      -6.637  -4.467  18.270  0.00  0.00     0.005 C 
ENDBRANCH  10  40
BRANCH  18  42
HETATM   42  C   UNK     0     -12.886   4.371  23.301  0.00  0.00     0.027 C 
HETATM   43  C   UNK     0     -12.281   4.751  21.454  0.00  0.00     0.005 C 
ENDBRANCH  18  42
TORSDOF 8
