REMARK VINA RESULT:      -7.9      3.346      9.106
REMARK  7 active torsions:
REMARK  status: ('A' for Active; 'I' for Inactive)
REMARK    1  A    between atoms: CAA_1  and  CBA_6 
REMARK    2  A    between atoms: CAA_1  and  C2A_28 
REMARK    3  A    between atoms: CAB_2  and  C3B_35 
REMARK    4  A    between atoms: CAD_4  and  CBD_9 
REMARK    5  A    between atoms: CAD_4  and  C3D_37 
REMARK    6  A    between atoms: CBA_6  and  CGA_11 
REMARK    7  A    between atoms: CBD_9  and  CGD_12 
ROOT
HETATM    1  CAC HEM A 148     -30.322  -3.208  17.641  1.00 17.51    -0.025 C 
HETATM    2  NA  HEM A 148     -26.716  -8.323  21.782  1.00 13.88    -0.246 N 
HETATM    3  CBC HEM A 148     -30.404  -1.957  18.380  1.00 22.56     0.031 C 
HETATM    4  NB  HEM A 148     -28.174  -8.929  19.512  1.00 13.06    -0.246 N 
HETATM    5  ND  HEM A 148     -27.268  -5.626  21.438  1.00 11.97    -0.246 N 
HETATM    6  CHA HEM A 148     -26.019  -6.553  23.299  1.00 12.79     0.038 C 
HETATM    7  CHB HEM A 148     -26.993 -10.569  20.859  1.00 14.03     0.038 C 
HETATM    8  CHC HEM A 148     -29.809  -8.037  17.938  1.00 14.68     0.038 A 
HETATM    9  CHD HEM A 148     -28.421  -3.982  20.068  1.00 11.42     0.038 C 
HETATM   10  CMA HEM A 148     -25.671 -11.551  23.457  1.00 16.75     0.032 C 
HETATM   11  CMB HEM A 148     -27.965 -12.658  18.786  1.00 11.97     0.033 C 
HETATM   12  CMC HEM A 148     -31.532  -5.768  16.578  1.00 15.35     0.033 C 
HETATM   13  CMD HEM A 148     -27.326  -1.886  22.085  1.00 12.06     0.032 C 
HETATM   14  C1A HEM A 148     -26.130  -7.882  22.948  1.00 13.87     0.079 A 
HETATM   15  C1B HEM A 148     -27.737 -10.213  19.757  1.00 14.21     0.079 A 
HETATM   16  C1C HEM A 148     -29.727  -6.710  18.305  1.00 12.26     0.079 A 
HETATM   17  C1D HEM A 148     -27.630  -4.334  21.131  1.00 11.83     0.079 A 
HETATM   18  C2A HEM A 148     -25.712  -8.993  23.783  1.00 18.04    -0.006 A 
HETATM   19  C2B HEM A 148     -28.288 -11.162  18.816  1.00 14.05    -0.003 A 
HETATM   20  C2C HEM A 148     -30.447  -5.636  17.647  1.00 15.15    -0.003 A 
HETATM   21  C2D HEM A 148     -27.132  -3.396  22.097  1.00 12.69    -0.007 A 
HETATM   22  C3A HEM A 148     -25.964 -10.112  23.063  1.00 15.63    -0.007 A 
HETATM   23  C3B HEM A 148     -29.115 -10.450  17.992  1.00 15.80     0.011 A 
HETATM   24  C3C HEM A 148     -29.989  -4.468  18.155  1.00 14.87     0.011 A 
HETATM   25  C3D HEM A 148     -26.461  -4.120  23.012  1.00 11.87    -0.006 A 
HETATM   26  C4A HEM A 148     -26.570  -9.695  21.835  1.00 15.24     0.079 A 
HETATM   27  C4B HEM A 148     -29.057  -9.074  18.462  1.00 14.44     0.082 A 
HETATM   28  C4C HEM A 148     -29.020  -4.852  19.188  1.00 12.44     0.082 A 
HETATM   29  C4D HEM A 148     -26.550  -5.496  22.599  1.00 11.45     0.079 A 
HETATM   30  NC  HEM A 148     -28.857  -6.227  19.257  1.00 12.45    -0.246 N 
HETATM   31 FE   HEM A 148     -27.564  -7.259  20.376  1.00 11.27     0.000 Fe
ENDROOT
BRANCH  18  32
HETATM   32  CAA HEM A 148     -25.205  -8.937  25.226  1.00 19.59     0.039 C 
BRANCH  32  33
HETATM   33  CBA HEM A 148     -26.294  -9.248  26.235  1.00 31.97     0.102 C 
BRANCH  33  34
HETATM   34  CGA HEM A 148     -27.533  -8.355  26.220  1.00 38.78     0.186 C 
HETATM   35  O1A HEM A 148     -27.440  -7.182  26.593  1.00 41.39    -0.647 OA
HETATM   36  O2A HEM A 148     -28.590  -8.835  25.802  1.00 42.18    -0.647 OA
ENDBRANCH  33  34
ENDBRANCH  32  33
ENDBRANCH  18  32
BRANCH  25  37
HETATM   37  CAD HEM A 148     -25.775  -3.580  24.256  1.00 12.86     0.039 C 
BRANCH  37  38
HETATM   38  CBD HEM A 148     -26.526  -3.871  25.557  1.00 15.48     0.102 C 
BRANCH  38  39
HETATM   39  CGD HEM A 148     -27.979  -3.436  25.554  1.00 16.81     0.186 C 
HETATM   40  O1D HEM A 148     -28.239  -2.240  25.518  1.00 19.28    -0.647 OA
HETATM   41  O2D HEM A 148     -28.854  -4.293  25.615  1.00 20.24    -0.647 OA
ENDBRANCH  38  39
ENDBRANCH  37  38
ENDBRANCH  25  37
BRANCH  23  42
HETATM   42  CAB HEM A 148     -29.816 -10.892  16.870  1.00 15.24    -0.025 C 
HETATM   43  CBB HEM A 148     -29.317 -10.825  15.508  1.00 15.41     0.031 C 
ENDBRANCH  23  42
TORSDOF 7
