REMARK VINA RESULT:      -3.7      9.038     10.987
REMARK  6 active torsions:
REMARK  status: ('A' for Active; 'I' for Inactive)
REMARK    1  A    between atoms: C1_1  and  O1_8 
REMARK    2  A    between atoms: C2_2  and  O2_9 
REMARK    3  A    between atoms: C3_3  and  O3_10 
REMARK    4  A    between atoms: C4_4  and  O4_11 
REMARK    5  A    between atoms: C5_5  and  C6_6 
REMARK    6  A    between atoms: C6_6  and  O6_13 
ROOT
HETATM    1  C1  AMG     0      59.942  37.669  18.263  0.00  0.00     0.290 C 
HETATM    2  C2  AMG     0      58.768  38.301  17.513  0.00  0.00     0.204 C 
HETATM    3  C3  AMG     0      57.460  37.692  18.026  0.00  0.00     0.183 C 
HETATM    4  C4  AMG     0      57.556  36.167  17.921  0.00  0.00     0.180 C 
HETATM    5  C5  AMG     0      58.821  35.695  18.640  0.00  0.00     0.179 C 
HETATM    6  O5  AMG     0      59.971  36.265  18.019  0.00  0.00    -0.349 OA
ENDROOT
BRANCH   5   7
HETATM    7  C6  AMG     0      58.907  34.169  18.567  0.00  0.00     0.198 C 
BRANCH   7   8
HETATM    8  O6  AMG     0      57.616  33.607  18.812  0.00  0.00    -0.398 OA
HETATM    9  HO6 AMG     0      57.199  34.151  19.493  0.00  0.00     0.209 HD
ENDBRANCH   7   8
ENDBRANCH   5   7
BRANCH   4  10
HETATM   10  O4  AMG     0      57.617  35.783  16.546  0.00  0.00    -0.390 OA
HETATM   11  HO4 AMG     0      57.366  36.560  16.027  0.00  0.00     0.210 HD
ENDBRANCH   4  10
BRANCH   3  12
HETATM   12  O3  AMG     0      56.367  38.160  17.235  0.00  0.00    -0.390 OA
HETATM   13  HO3 AMG     0      56.566  39.076  16.996  0.00  0.00     0.210 HD
ENDBRANCH   3  12
BRANCH   1  14
HETATM   14  O1  AMG     0      59.792  37.904  19.665  0.00  0.00    -0.363 OA
HETATM   15  C7  AMG     0      61.107  37.933  20.221  0.00  0.00     0.204 C 
ENDBRANCH   1  14
BRANCH   2  16
HETATM   16  O2  AMG     0      58.759  39.711  17.738  0.00  0.00    -0.388 OA
HETATM   17  HO2 AMG     0      57.982  40.063  17.282  0.00  0.00     0.210 HD
ENDBRANCH   2  16
TORSDOF 6
