REMARK VINA RESULT:      -4.0      1.225      3.595
REMARK  6 active torsions:
REMARK  status: ('A' for Active; 'I' for Inactive)
REMARK    1  A    between atoms: C1_1  and  O1_8 
REMARK    2  A    between atoms: C2_2  and  O2_9 
REMARK    3  A    between atoms: C3_3  and  O3_10 
REMARK    4  A    between atoms: C4_4  and  O4_11 
REMARK    5  A    between atoms: C5_5  and  C6_6 
REMARK    6  A    between atoms: C6_6  and  O6_13 
ROOT
HETATM    1  C1  AMG     0      52.654  30.197  23.510  0.00  0.00     0.290 C 
HETATM    2  C2  AMG     0      51.930  28.855  23.633  0.00  0.00     0.204 C 
HETATM    3  C3  AMG     0      52.968  27.731  23.692  0.00  0.00     0.183 C 
HETATM    4  C4  AMG     0      53.900  27.861  22.483  0.00  0.00     0.180 C 
HETATM    5  C5  AMG     0      54.476  29.277  22.446  0.00  0.00     0.179 C 
HETATM    6  O5  AMG     0      53.418  30.224  22.307  0.00  0.00    -0.349 OA
ENDROOT
BRANCH   5   7
HETATM    7  C6  AMG     0      55.432  29.406  21.259  0.00  0.00     0.198 C 
BRANCH   7   8
HETATM    8  O6  AMG     0      54.690  29.734  20.083  0.00  0.00    -0.398 OA
HETATM    9  HO6 AMG     0      54.592  28.916  19.577  0.00  0.00     0.209 HD
ENDBRANCH   7   8
ENDBRANCH   5   7
BRANCH   4  10
HETATM   10  O4  AMG     0      53.167  27.611  21.283  0.00  0.00    -0.390 OA
HETATM   11  HO4 AMG     0      53.306  28.375  20.706  0.00  0.00     0.210 HD
ENDBRANCH   4  10
BRANCH   3  12
HETATM   12  O3  AMG     0      52.309  26.464  23.657  0.00  0.00    -0.390 OA
HETATM   13  HO3 AMG     0      52.635  26.000  22.873  0.00  0.00     0.210 HD
ENDBRANCH   3  12
BRANCH   1  14
HETATM   14  O1  AMG     0      53.524  30.373  24.630  0.00  0.00    -0.363 OA
HETATM   15  C7  AMG     0      53.314  31.700  25.112  0.00  0.00     0.204 C 
ENDBRANCH   1  14
BRANCH   2  16
HETATM   16  O2  AMG     0      51.144  28.842  24.825  0.00  0.00    -0.388 OA
HETATM   17  HO2 AMG     0      50.767  27.955  24.903  0.00  0.00     0.210 HD
ENDBRANCH   2  16
TORSDOF 6
