REMARK VINA RESULT:      -3.7      1.960      2.668
REMARK  6 active torsions:
REMARK  status: ('A' for Active; 'I' for Inactive)
REMARK    1  A    between atoms: C1_1  and  O1_8 
REMARK    2  A    between atoms: C2_2  and  O2_9 
REMARK    3  A    between atoms: C3_3  and  O3_10 
REMARK    4  A    between atoms: C4_4  and  O4_11 
REMARK    5  A    between atoms: C5_5  and  C6_6 
REMARK    6  A    between atoms: C6_6  and  O6_13 
ROOT
HETATM    1  C1  AMG     0      53.119  26.619  22.189  0.00  0.00     0.290 C 
HETATM    2  C2  AMG     0      52.119  26.920  23.308  0.00  0.00     0.204 C 
HETATM    3  C3  AMG     0      51.948  28.436  23.430  0.00  0.00     0.183 C 
HETATM    4  C4  AMG     0      53.331  29.073  23.602  0.00  0.00     0.180 C 
HETATM    5  C5  AMG     0      54.238  28.610  22.461  0.00  0.00     0.179 C 
HETATM    6  O5  AMG     0      54.384  27.193  22.506  0.00  0.00    -0.349 OA
ENDROOT
BRANCH   5   7
HETATM    7  C6  AMG     0      55.613  29.267  22.608  0.00  0.00     0.198 C 
BRANCH   7   8
HETATM    8  O6  AMG     0      55.463  30.557  23.207  0.00  0.00    -0.398 OA
HETATM    9  HO6 AMG     0      54.966  31.099  22.580  0.00  0.00     0.209 HD
ENDBRANCH   7   8
ENDBRANCH   5   7
BRANCH   4  10
HETATM   10  O4  AMG     0      53.892  28.672  24.853  0.00  0.00    -0.390 OA
HETATM   11  HO4 AMG     0      54.770  29.072  24.907  0.00  0.00     0.210 HD
ENDBRANCH   4  10
BRANCH   3  12
HETATM   12  O3  AMG     0      51.135  28.740  24.565  0.00  0.00    -0.390 OA
HETATM   13  HO3 AMG     0      50.368  29.230  24.238  0.00  0.00     0.210 HD
ENDBRANCH   3  12
BRANCH   1  14
HETATM   14  O1  AMG     0      52.639  27.172  20.962  0.00  0.00    -0.363 OA
HETATM   15  C7  AMG     0      52.812  26.170  19.961  0.00  0.00     0.204 C 
ENDBRANCH   1  14
BRANCH   2  16
HETATM   16  O2  AMG     0      50.860  26.321  23.000  0.00  0.00    -0.388 OA
HETATM   17  HO2 AMG     0      50.201  26.748  23.563  0.00  0.00     0.210 HD
ENDBRANCH   2  16
TORSDOF 6
