REMARK VINA RESULT:      -3.8      7.344      9.195
REMARK  6 active torsions:
REMARK  status: ('A' for Active; 'I' for Inactive)
REMARK    1  A    between atoms: C1_1  and  O1_8 
REMARK    2  A    between atoms: C2_2  and  O2_9 
REMARK    3  A    between atoms: C3_3  and  O3_10 
REMARK    4  A    between atoms: C4_4  and  O4_11 
REMARK    5  A    between atoms: C5_5  and  C6_6 
REMARK    6  A    between atoms: C6_6  and  O6_13 
ROOT
HETATM    1  C1  AMG     0      46.994  32.044  28.213  0.00  0.00     0.290 C 
HETATM    2  C2  AMG     0      47.924  32.625  27.145  0.00  0.00     0.204 C 
HETATM    3  C3  AMG     0      48.475  33.965  27.638  0.00  0.00     0.183 C 
HETATM    4  C4  AMG     0      47.300  34.862  28.038  0.00  0.00     0.180 C 
HETATM    5  C5  AMG     0      46.418  34.113  29.039  0.00  0.00     0.179 C 
HETATM    6  O5  AMG     0      45.900  32.930  28.434  0.00  0.00    -0.349 OA
ENDROOT
BRANCH   5   7
HETATM    7  C6  AMG     0      45.258  35.014  29.467  0.00  0.00     0.198 C 
BRANCH   7   8
HETATM    8  O6  AMG     0      44.305  35.100  28.406  0.00  0.00    -0.398 OA
HETATM    9  HO6 AMG     0      44.217  36.036  28.184  0.00  0.00     0.209 HD
ENDBRANCH   7   8
ENDBRANCH   5   7
BRANCH   4  10
HETATM   10  O4  AMG     0      46.533  35.193  26.879  0.00  0.00    -0.390 OA
HETATM   11  HO4 AMG     0      45.602  35.121  27.129  0.00  0.00     0.210 HD
ENDBRANCH   4  10
BRANCH   3  12
HETATM   12  O3  AMG     0      49.225  34.592  26.596  0.00  0.00    -0.390 OA
HETATM   13  HO3 AMG     0      48.775  35.422  26.387  0.00  0.00     0.210 HD
ENDBRANCH   3  12
BRANCH   1  14
HETATM   14  O1  AMG     0      47.720  31.871  29.431  0.00  0.00    -0.363 OA
HETATM   15  C7  AMG     0      47.412  30.564  29.914  0.00  0.00     0.204 C 
ENDBRANCH   1  14
BRANCH   2  16
HETATM   16  O2  AMG     0      49.004  31.722  26.907  0.00  0.00    -0.388 OA
HETATM   17  HO2 AMG     0      48.727  31.138  26.187  0.00  0.00     0.210 HD
ENDBRANCH   2  16
TORSDOF 6
