REMARK VINA RESULT:      -7.2      1.339      1.995
REMARK  4 active torsions:
REMARK  status: ('A' for Active; 'I' for Inactive)
REMARK    1  A    between atoms: O_1  and  C_10 
REMARK    2  A    between atoms: O_2  and  C_11 
REMARK    3  A    between atoms: C_5  and  C_6 
REMARK    4  A    between atoms: C_6  and  C_12 
ROOT
HETATM    1  O   UNK     0     112.955  73.608  11.299  0.00  0.00    -0.285 OA
HETATM    2  O   UNK     0     114.251  69.424   8.279  0.00  0.00    -0.285 OA
HETATM    3  C   UNK     0     113.437  71.278  11.232  0.00  0.00     0.008 A 
HETATM    4  C   UNK     0     113.747  70.217  10.465  0.00  0.00     0.002 A 
HETATM    5  C   UNK     0     113.260  72.630  10.620  0.00  0.00     0.215 A 
HETATM    6  C   UNK     0     113.948  70.377   8.993  0.00  0.00     0.214 A 
HETATM    7  C   UNK     0     113.455  72.773   9.160  0.00  0.00     0.156 A 
HETATM    8  C   UNK     0     113.776  71.723   8.402  0.00  0.00     0.156 A 
HETATM    9  C   UNK     0     113.907  68.804  10.962  0.00  0.00     0.053 C 
ENDROOT
BRANCH   3  10
HETATM   10  C   UNK     0     113.256  71.246  12.725  0.00  0.00     0.071 C 
BRANCH  10  11
HETATM   11  C   UNK     0     111.809  71.178  13.103  0.00  0.00    -0.020 C 
HETATM   12  C   UNK     0     111.155  70.150  13.677  0.00  0.00    -0.091 C 
HETATM   13  C   UNK     0     109.696  70.143  14.033  0.00  0.00     0.042 C 
HETATM   14  C   UNK     0     111.886  68.880  14.025  0.00  0.00     0.042 C 
ENDBRANCH  10  11
ENDBRANCH   3  10
BRANCH   7  15
HETATM   15  O   UNK     0     113.294  74.026   8.604  0.00  0.00    -0.350 OA
HETATM   16  C   UNK     0     114.418  74.841   8.871  0.00  0.00     0.210 C 
ENDBRANCH   7  15
BRANCH   8  17
HETATM   17  O   UNK     0     113.967  71.824   7.038  0.00  0.00    -0.350 OA
HETATM   18  C   UNK     0     112.736  71.723   6.350  0.00  0.00     0.210 C 
ENDBRANCH   8  17
TORSDOF 4
