REMARK VINA RESULT:      -7.2     19.263     21.383
REMARK  4 active torsions:
REMARK  status: ('A' for Active; 'I' for Inactive)
REMARK    1  A    between atoms: O_1  and  C_10 
REMARK    2  A    between atoms: O_2  and  C_11 
REMARK    3  A    between atoms: C_5  and  C_6 
REMARK    4  A    between atoms: C_6  and  C_12 
ROOT
HETATM    1  O   UNK     0     129.786  67.626  -4.630  0.00  0.00    -0.285 OA
HETATM    2  O   UNK     0     128.688  68.230   0.540  0.00  0.00    -0.285 OA
HETATM    3  C   UNK     0     129.969  69.019  -2.709  0.00  0.00     0.008 A 
HETATM    4  C   UNK     0     129.674  69.179  -1.406  0.00  0.00     0.002 A 
HETATM    5  C   UNK     0     129.548  67.782  -3.435  0.00  0.00     0.215 A 
HETATM    6  C   UNK     0     128.947  68.111  -0.655  0.00  0.00     0.214 A 
HETATM    7  C   UNK     0     128.822  66.736  -2.681  0.00  0.00     0.156 A 
HETATM    8  C   UNK     0     128.543  66.889  -1.385  0.00  0.00     0.156 A 
HETATM    9  C   UNK     0     130.007  70.396  -0.584  0.00  0.00     0.053 C 
ENDROOT
BRANCH   3  10
HETATM   10  C   UNK     0     130.732  70.003  -3.553  0.00  0.00     0.071 C 
BRANCH  10  11
HETATM   11  C   UNK     0     130.596  71.398  -3.031  0.00  0.00    -0.020 C 
HETATM   12  C   UNK     0     131.351  72.471  -3.338  0.00  0.00    -0.091 C 
HETATM   13  C   UNK     0     131.162  73.852  -2.779  0.00  0.00     0.042 C 
HETATM   14  C   UNK     0     132.484  72.348  -4.323  0.00  0.00     0.042 C 
ENDBRANCH  10  11
ENDBRANCH   3  10
BRANCH   7  15
HETATM   15  O   UNK     0     128.442  65.594  -3.358  0.00  0.00    -0.350 OA
HETATM   16  C   UNK     0     129.439  64.597  -3.260  0.00  0.00     0.210 C 
ENDBRANCH   7  15
BRANCH   8  17
HETATM   17  O   UNK     0     127.869  65.930  -0.654  0.00  0.00    -0.350 OA
HETATM   18  C   UNK     0     126.471  66.071  -0.809  0.00  0.00     0.210 C 
ENDBRANCH   8  17
TORSDOF 4
