REMARK VINA RESULT:      -7.0     17.572     19.690
REMARK  4 active torsions:
REMARK  status: ('A' for Active; 'I' for Inactive)
REMARK    1  A    between atoms: O_1  and  C_10 
REMARK    2  A    between atoms: O_2  and  C_11 
REMARK    3  A    between atoms: C_5  and  C_6 
REMARK    4  A    between atoms: C_6  and  C_12 
ROOT
HETATM    1  O   UNK     0     118.991  55.699  16.391  0.00  0.00    -0.285 OA
HETATM    2  O   UNK     0     117.547  50.861  18.067  0.00  0.00    -0.285 OA
HETATM    3  C   UNK     0     119.658  53.694  17.486  0.00  0.00     0.008 A 
HETATM    4  C   UNK     0     119.287  52.477  17.926  0.00  0.00     0.002 A 
HETATM    5  C   UNK     0     118.679  54.576  16.780  0.00  0.00     0.215 A 
HETATM    6  C   UNK     0     117.899  51.977  17.691  0.00  0.00     0.214 A 
HETATM    7  C   UNK     0     117.306  54.070  16.562  0.00  0.00     0.156 A 
HETATM    8  C   UNK     0     116.942  52.859  16.986  0.00  0.00     0.156 A 
HETATM    9  C   UNK     0     120.170  51.522  18.684  0.00  0.00     0.053 C 
ENDROOT
BRANCH   3  10
HETATM   10  C   UNK     0     121.035  54.283  17.625  0.00  0.00     0.071 C 
BRANCH  10  11
HETATM   11  C   UNK     0     121.355  54.607  19.050  0.00  0.00    -0.020 C 
HETATM   12  C   UNK     0     121.303  55.810  19.654  0.00  0.00    -0.091 C 
HETATM   13  C   UNK     0     121.637  56.071  21.095  0.00  0.00     0.042 C 
HETATM   14  C   UNK     0     120.876  57.032  18.884  0.00  0.00     0.042 C 
ENDBRANCH  10  11
ENDBRANCH   3  10
BRANCH   7  15
HETATM   15  O   UNK     0     116.410  54.890  15.905  0.00  0.00    -0.350 OA
HETATM   16  C   UNK     0     116.426  54.636  14.514  0.00  0.00     0.210 C 
ENDBRANCH   7  15
BRANCH   8  17
HETATM   17  O   UNK     0     115.670  52.357  16.794  0.00  0.00    -0.350 OA
HETATM   18  C   UNK     0     114.833  52.684  17.885  0.00  0.00     0.210 C 
ENDBRANCH   8  17
TORSDOF 4
