REMARK VINA RESULT:      -6.5     13.157     16.595
REMARK  4 active torsions:
REMARK  status: ('A' for Active; 'I' for Inactive)
REMARK    1  A    between atoms: O_1  and  C_10 
REMARK    2  A    between atoms: O_2  and  C_11 
REMARK    3  A    between atoms: C_5  and  C_6 
REMARK    4  A    between atoms: C_6  and  C_12 
ROOT
HETATM    1  O   UNK     0     117.012  66.003  26.716  0.00  0.00    -0.285 OA
HETATM    2  O   UNK     0     113.567  63.999  23.193  0.00  0.00    -0.285 OA
HETATM    3  C   UNK     0     115.917  64.057  25.894  0.00  0.00     0.008 A 
HETATM    4  C   UNK     0     115.031  63.554  25.014  0.00  0.00     0.002 A 
HETATM    5  C   UNK     0     116.225  65.520  25.907  0.00  0.00     0.215 A 
HETATM    6  C   UNK     0     114.363  64.443  24.017  0.00  0.00     0.214 A 
HETATM    7  C   UNK     0     115.550  66.390  24.918  0.00  0.00     0.156 A 
HETATM    8  C   UNK     0     114.682  65.888  24.038  0.00  0.00     0.156 A 
HETATM    9  C   UNK     0     114.610  62.110  24.937  0.00  0.00     0.053 C 
ENDROOT
BRANCH   3  10
HETATM   10  C   UNK     0     116.682  63.254  26.910  0.00  0.00     0.071 C 
BRANCH  10  11
HETATM   11  C   UNK     0     115.996  63.253  28.240  0.00  0.00    -0.020 C 
HETATM   12  C   UNK     0     115.435  62.208  28.878  0.00  0.00    -0.091 C 
HETATM   13  C   UNK     0     114.759  62.272  30.218  0.00  0.00     0.042 C 
HETATM   14  C   UNK     0     115.459  60.835  28.259  0.00  0.00     0.042 C 
ENDBRANCH  10  11
ENDBRANCH   3  10
BRANCH   7  15
HETATM   15  O   UNK     0     115.844  67.739  24.934  0.00  0.00    -0.350 OA
HETATM   16  C   UNK     0     114.941  68.439  25.765  0.00  0.00     0.210 C 
ENDBRANCH   7  15
BRANCH   8  17
HETATM   17  O   UNK     0     114.039  66.674  23.101  0.00  0.00    -0.350 OA
HETATM   18  C   UNK     0     114.816  66.792  21.927  0.00  0.00     0.210 C 
ENDBRANCH   8  17
TORSDOF 4
