REMARK VINA RESULT:      -7.0     19.680     21.759
REMARK  4 active torsions:
REMARK  status: ('A' for Active; 'I' for Inactive)
REMARK    1  A    between atoms: O_1  and  C_10 
REMARK    2  A    between atoms: O_2  and  C_11 
REMARK    3  A    between atoms: C_5  and  C_6 
REMARK    4  A    between atoms: C_6  and  C_12 
ROOT
HETATM    1  O   UNK     0     130.699  69.179  -4.785  0.00  0.00    -0.285 OA
HETATM    2  O   UNK     0     129.861  71.488  -0.066  0.00  0.00    -0.285 OA
HETATM    3  C   UNK     0     129.979  68.897  -2.534  0.00  0.00     0.008 A 
HETATM    4  C   UNK     0     129.785  69.478  -1.335  0.00  0.00     0.002 A 
HETATM    5  C   UNK     0     130.493  69.695  -3.689  0.00  0.00     0.215 A 
HETATM    6  C   UNK     0     130.052  70.936  -1.147  0.00  0.00     0.214 A 
HETATM    7  C   UNK     0     130.760  71.136  -3.485  0.00  0.00     0.156 A 
HETATM    8  C   UNK     0     130.554  71.714  -2.300  0.00  0.00     0.156 A 
HETATM    9  C   UNK     0     129.314  68.768  -0.094  0.00  0.00     0.053 C 
ENDROOT
BRANCH   3  10
HETATM   10  C   UNK     0     129.703  67.453  -2.853  0.00  0.00     0.071 C 
BRANCH  10  11
HETATM   11  C   UNK     0     128.275  67.239  -3.246  0.00  0.00    -0.020 C 
HETATM   12  C   UNK     0     127.806  66.553  -4.306  0.00  0.00    -0.091 C 
HETATM   13  C   UNK     0     126.354  66.373  -4.647  0.00  0.00     0.042 C 
HETATM   14  C   UNK     0     128.757  65.879  -5.260  0.00  0.00     0.042 C 
ENDBRANCH  10  11
ENDBRANCH   3  10
BRANCH   7  15
HETATM   15  O   UNK     0     131.229  71.867  -4.559  0.00  0.00    -0.350 OA
HETATM   16  C   UNK     0     132.639  71.970  -4.517  0.00  0.00     0.210 C 
ENDBRANCH   7  15
BRANCH   8  17
HETATM   17  O   UNK     0     130.791  73.057  -2.080  0.00  0.00    -0.350 OA
HETATM   18  C   UNK     0     131.857  73.235  -1.169  0.00  0.00     0.210 C 
ENDBRANCH   8  17
TORSDOF 4
