REMARK VINA RESULT:      -4.8      2.853      5.148
REMARK  13 active torsions:
REMARK  status: ('A' for Active; 'I' for Inactive)
REMARK    1  A    between atoms: O_1  and  C_19 
REMARK    2  A    between atoms: O_2  and  C_23 
REMARK    3  A    between atoms: O_3  and  C_27 
REMARK    4  A    between atoms: O_4  and  C_30 
REMARK    5  A    between atoms: N_5  and  C_12 
REMARK    6  A    between atoms: N_5  and  C_18 
REMARK    7  A    between atoms: C_7  and  C_8 
REMARK    8  A    between atoms: C_7  and  C_9 
REMARK    9  A    between atoms: C_7  and  C_11 
REMARK   10  A    between atoms: C_9  and  C_10 
REMARK   11  A    between atoms: C_10  and  C_12 
REMARK   12  A    between atoms: C_18  and  C_22 
REMARK   13  A    between atoms: C_22  and  C_24 
ROOT
HETATM    1  N   UNK     0       1.467  28.179  22.559  0.00  0.00    -0.196 NA
HETATM    2  C   UNK     0       0.176  30.347  23.376  0.00  0.00     0.079 C 
HETATM    3  C   UNK     0       0.895  29.122  22.918  0.00  0.00     0.074 C 
ENDROOT
BRANCH   2   4
HETATM    4  C   UNK     0       0.838  30.839  24.733  0.00  0.00     0.004 C 
HETATM    5  C   UNK     0       2.052  31.765  24.546  0.00  0.00     0.011 C 
HETATM    6  C   UNK     0       1.249  29.680  25.662  0.00  0.00     0.011 C 
ENDBRANCH   2   4
BRANCH   2   7
HETATM    7  C   UNK     0       0.373  31.436  22.259  0.00  0.00     0.032 C 
BRANCH   7   8
HETATM    8  C   UNK     0       0.447  30.890  20.817  0.00  0.00     0.032 C 
BRANCH   8   9
HETATM    9  C   UNK     0       0.150  31.961  19.763  0.00  0.00     0.272 C 
BRANCH   9  10
HETATM   10  N   UNK     0      -1.123  31.729  19.093  0.00  0.00     0.084 N 
HETATM   11  C   UNK     0      -1.557  30.343  19.275  0.00  0.00     0.309 C 
BRANCH  10  12
HETATM   12  C   UNK     0      -2.144  32.651  19.594  0.00  0.00     0.276 C 
BRANCH  12  13
HETATM   13  C   UNK     0      -3.075  31.951  20.584  0.00  0.00     0.068 C 
BRANCH  13  14
HETATM   14  C   UNK     0      -3.380  32.828  21.773  0.00  0.00    -0.054 A 
HETATM   15  C   UNK     0      -4.685  32.919  22.256  0.00  0.00     0.046 A 
HETATM   16  C   UNK     0      -4.967  33.729  23.357  0.00  0.00     0.102 A 
HETATM   17  C   UNK     0      -3.943  34.448  23.974  0.00  0.00     0.101 A 
HETATM   18  C   UNK     0      -2.638  34.356  23.491  0.00  0.00     0.040 A 
HETATM   19  C   UNK     0      -2.356  33.546  22.391  0.00  0.00     0.010 A 
BRANCH  16  20
HETATM   20  O   UNK     0      -6.245  33.810  23.820  0.00  0.00    -0.353 OA
HETATM   21  C   UNK     0      -6.928  32.580  24.058  0.00  0.00     0.210 C 
ENDBRANCH  16  20
BRANCH  17  22
HETATM   22  O   UNK     0      -4.204  35.241  25.049  0.00  0.00    -0.353 OA
HETATM   23  C   UNK     0      -4.408  36.630  24.796  0.00  0.00     0.210 C 
ENDBRANCH  17  22
ENDBRANCH  13  14
ENDBRANCH  12  13
ENDBRANCH  10  12
ENDBRANCH   9  10
ENDBRANCH   8   9
ENDBRANCH   7   8
ENDBRANCH   2   7
BRANCH   2  24
HETATM   24  C   UNK     0      -1.335  30.112  23.609  0.00  0.00    -0.032 A 
HETATM   25  C   UNK     0      -2.025  29.184  22.827  0.00  0.00     0.048 A 
HETATM   26  C   UNK     0      -3.388  28.972  23.037  0.00  0.00     0.102 A 
HETATM   27  C   UNK     0      -4.061  29.687  24.029  0.00  0.00     0.101 A 
HETATM   28  C   UNK     0      -3.370  30.614  24.810  0.00  0.00     0.040 A 
HETATM   29  C   UNK     0      -2.008  30.827  24.600  0.00  0.00     0.012 A 
BRANCH  26  30
HETATM   30  O   UNK     0      -4.050  28.064  22.269  0.00  0.00    -0.353 OA
HETATM   31  C   UNK     0      -4.041  26.708  22.712  0.00  0.00     0.210 C 
ENDBRANCH  26  30
BRANCH  27  32
HETATM   32  O   UNK     0      -5.391  29.488  24.244  0.00  0.00    -0.353 OA
HETATM   33  C   UNK     0      -5.757  28.770  25.420  0.00  0.00     0.210 C 
ENDBRANCH  27  32
ENDBRANCH   2  24
TORSDOF 13
