REMARK VINA RESULT:      -4.9      2.333      4.624
REMARK  13 active torsions:
REMARK  status: ('A' for Active; 'I' for Inactive)
REMARK    1  A    between atoms: O_1  and  C_19 
REMARK    2  A    between atoms: O_2  and  C_23 
REMARK    3  A    between atoms: O_3  and  C_27 
REMARK    4  A    between atoms: O_4  and  C_30 
REMARK    5  A    between atoms: N_5  and  C_12 
REMARK    6  A    between atoms: N_5  and  C_18 
REMARK    7  A    between atoms: C_7  and  C_8 
REMARK    8  A    between atoms: C_7  and  C_9 
REMARK    9  A    between atoms: C_7  and  C_11 
REMARK   10  A    between atoms: C_9  and  C_10 
REMARK   11  A    between atoms: C_10  and  C_12 
REMARK   12  A    between atoms: C_18  and  C_22 
REMARK   13  A    between atoms: C_22  and  C_24 
ROOT
HETATM    1  N   UNK     0      -2.088  30.145  22.255  0.00  0.00    -0.196 NA
HETATM    2  C   UNK     0      -1.076  32.473  21.488  0.00  0.00     0.079 C 
HETATM    3  C   UNK     0      -1.638  31.162  21.925  0.00  0.00     0.074 C 
ENDROOT
BRANCH   2   4
HETATM    4  C   UNK     0      -0.567  32.327  19.991  0.00  0.00     0.004 C 
HETATM    5  C   UNK     0      -1.680  32.031  18.971  0.00  0.00     0.011 C 
HETATM    6  C   UNK     0       0.537  31.265  19.827  0.00  0.00     0.011 C 
ENDBRANCH   2   4
BRANCH   2   7
HETATM    7  C   UNK     0      -2.248  33.518  21.556  0.00  0.00     0.032 C 
BRANCH   7   8
HETATM    8  C   UNK     0      -3.336  33.215  22.608  0.00  0.00     0.032 C 
BRANCH   8   9
HETATM    9  C   UNK     0      -4.151  34.455  22.990  0.00  0.00     0.272 C 
BRANCH   9  10
HETATM   10  N   UNK     0      -4.582  34.417  24.382  0.00  0.00     0.084 N 
HETATM   11  C   UNK     0      -4.326  33.099  24.965  0.00  0.00     0.309 C 
BRANCH  10  12
HETATM   12  C   UNK     0      -3.904  35.456  25.159  0.00  0.00     0.276 C 
BRANCH  12  13
HETATM   13  C   UNK     0      -2.692  36.003  24.405  0.00  0.00     0.068 C 
BRANCH  13  14
HETATM   14  C   UNK     0      -1.430  35.883  25.222  0.00  0.00    -0.054 A 
HETATM   15  C   UNK     0      -0.492  36.916  25.211  0.00  0.00     0.046 A 
HETATM   16  C   UNK     0       0.675  36.806  25.968  0.00  0.00     0.102 A 
HETATM   17  C   UNK     0       0.904  35.663  26.735  0.00  0.00     0.101 A 
HETATM   18  C   UNK     0      -0.034  34.631  26.745  0.00  0.00     0.040 A 
HETATM   19  C   UNK     0      -1.202  34.741  25.989  0.00  0.00     0.010 A 
BRANCH  16  20
HETATM   20  O   UNK     0       1.584  37.820  25.949  0.00  0.00    -0.353 OA
HETATM   21  C   UNK     0       2.436  37.906  24.808  0.00  0.00     0.210 C 
ENDBRANCH  16  20
BRANCH  17  22
HETATM   22  O   UNK     0       2.039  35.544  27.478  0.00  0.00    -0.353 OA
HETATM   23  C   UNK     0       1.998  34.643  28.583  0.00  0.00     0.210 C 
ENDBRANCH  17  22
ENDBRANCH  13  14
ENDBRANCH  12  13
ENDBRANCH  10  12
ENDBRANCH   9  10
ENDBRANCH   8   9
ENDBRANCH   7   8
ENDBRANCH   2   7
BRANCH   2  24
HETATM   24  C   UNK     0       0.098  32.955  22.374  0.00  0.00    -0.032 A 
HETATM   25  C   UNK     0       0.651  32.097  23.326  0.00  0.00     0.048 A 
HETATM   26  C   UNK     0       1.709  32.531  24.124  0.00  0.00     0.102 A 
HETATM   27  C   UNK     0       2.215  33.823  23.971  0.00  0.00     0.101 A 
HETATM   28  C   UNK     0       1.661  34.679  23.020  0.00  0.00     0.040 A 
HETATM   29  C   UNK     0       0.603  34.246  22.221  0.00  0.00     0.012 A 
BRANCH  26  30
HETATM   30  O   UNK     0       2.240  31.685  25.049  0.00  0.00    -0.353 OA
HETATM   31  C   UNK     0       3.147  30.691  24.574  0.00  0.00     0.210 C 
ENDBRANCH  26  30
BRANCH  27  32
HETATM   32  O   UNK     0       3.248  34.258  24.744  0.00  0.00    -0.353 OA
HETATM   33  C   UNK     0       4.452  34.620  24.072  0.00  0.00     0.210 C 
ENDBRANCH  27  32
ENDBRANCH   2  24
TORSDOF 13
