REMARK VINA RESULT:      -5.0      2.202      3.892
REMARK  13 active torsions:
REMARK  status: ('A' for Active; 'I' for Inactive)
REMARK    1  A    between atoms: O_1  and  C_19 
REMARK    2  A    between atoms: O_2  and  C_23 
REMARK    3  A    between atoms: O_3  and  C_27 
REMARK    4  A    between atoms: O_4  and  C_30 
REMARK    5  A    between atoms: N_5  and  C_12 
REMARK    6  A    between atoms: N_5  and  C_18 
REMARK    7  A    between atoms: C_7  and  C_8 
REMARK    8  A    between atoms: C_7  and  C_9 
REMARK    9  A    between atoms: C_7  and  C_11 
REMARK   10  A    between atoms: C_9  and  C_10 
REMARK   11  A    between atoms: C_10  and  C_12 
REMARK   12  A    between atoms: C_18  and  C_22 
REMARK   13  A    between atoms: C_22  and  C_24 
ROOT
HETATM    1  N   UNK     0      -2.047  30.413  24.009  0.00  0.00    -0.196 NA
HETATM    2  C   UNK     0       0.487  30.328  23.233  0.00  0.00     0.079 C 
HETATM    3  C   UNK     0      -0.936  30.383  23.675  0.00  0.00     0.074 C 
ENDROOT
BRANCH   2   4
HETATM    4  C   UNK     0       1.140  28.999  23.807  0.00  0.00     0.004 C 
HETATM    5  C   UNK     0       2.215  28.379  22.899  0.00  0.00     0.011 C 
HETATM    6  C   UNK     0       0.103  27.911  24.145  0.00  0.00     0.011 C 
ENDBRANCH   2   4
BRANCH   2   7
HETATM    7  C   UNK     0       0.476  30.283  21.662  0.00  0.00     0.032 C 
BRANCH   7   8
HETATM    8  C   UNK     0      -0.757  29.599  21.035  0.00  0.00     0.032 C 
BRANCH   8   9
HETATM    9  C   UNK     0      -0.846  29.811  19.520  0.00  0.00     0.272 C 
BRANCH   9  10
HETATM   10  N   UNK     0      -0.347  31.121  19.123  0.00  0.00     0.084 N 
HETATM   11  C   UNK     0       0.252  31.062  17.788  0.00  0.00     0.309 C 
BRANCH  10  12
HETATM   12  C   UNK     0      -1.423  32.113  19.152  0.00  0.00     0.276 C 
BRANCH  12  13
HETATM   13  C   UNK     0      -1.153  33.184  20.208  0.00  0.00     0.068 C 
BRANCH  13  14
HETATM   14  C   UNK     0      -2.202  33.171  21.293  0.00  0.00    -0.054 A 
HETATM   15  C   UNK     0      -1.987  33.875  22.478  0.00  0.00     0.046 A 
HETATM   16  C   UNK     0      -2.958  33.864  23.480  0.00  0.00     0.102 A 
HETATM   17  C   UNK     0      -4.142  33.148  23.298  0.00  0.00     0.101 A 
HETATM   18  C   UNK     0      -4.355  32.445  22.112  0.00  0.00     0.040 A 
HETATM   19  C   UNK     0      -3.385  32.456  21.109  0.00  0.00     0.010 A 
BRANCH  16  20
HETATM   20  O   UNK     0      -2.738  34.554  24.634  0.00  0.00    -0.353 OA
HETATM   21  C   UNK     0      -2.576  35.967  24.522  0.00  0.00     0.210 C 
ENDBRANCH  16  20
BRANCH  17  22
HETATM   22  O   UNK     0      -5.097  33.129  24.268  0.00  0.00    -0.353 OA
HETATM   23  C   UNK     0      -5.417  31.862  24.838  0.00  0.00     0.210 C 
ENDBRANCH  17  22
ENDBRANCH  13  14
ENDBRANCH  12  13
ENDBRANCH  10  12
ENDBRANCH   9  10
ENDBRANCH   8   9
ENDBRANCH   7   8
ENDBRANCH   2   7
BRANCH   2  24
HETATM   24  C   UNK     0       1.318  31.544  23.709  0.00  0.00    -0.032 A 
HETATM   25  C   UNK     0       1.271  32.743  22.997  0.00  0.00     0.048 A 
HETATM   26  C   UNK     0       2.019  33.839  23.427  0.00  0.00     0.102 A 
HETATM   27  C   UNK     0       2.815  33.736  24.568  0.00  0.00     0.101 A 
HETATM   28  C   UNK     0       2.861  32.537  25.279  0.00  0.00     0.040 A 
HETATM   29  C   UNK     0       2.113  31.440  24.851  0.00  0.00     0.012 A 
BRANCH  26  30
HETATM   30  O   UNK     0       1.965  35.003  22.724  0.00  0.00    -0.353 OA
HETATM   31  C   UNK     0       0.947  35.935  23.088  0.00  0.00     0.210 C 
ENDBRANCH  26  30
BRANCH  27  32
HETATM   32  O   UNK     0       3.550  34.799  24.998  0.00  0.00    -0.353 OA
HETATM   33  C   UNK     0       3.452  35.138  26.380  0.00  0.00     0.210 C 
ENDBRANCH  27  32
ENDBRANCH   2  24
TORSDOF 13
