REMARK VINA RESULT:      -5.0      2.434      5.152
REMARK  13 active torsions:
REMARK  status: ('A' for Active; 'I' for Inactive)
REMARK    1  A    between atoms: O_1  and  C_19 
REMARK    2  A    between atoms: O_2  and  C_23 
REMARK    3  A    between atoms: O_3  and  C_27 
REMARK    4  A    between atoms: O_4  and  C_30 
REMARK    5  A    between atoms: N_5  and  C_12 
REMARK    6  A    between atoms: N_5  and  C_18 
REMARK    7  A    between atoms: C_7  and  C_8 
REMARK    8  A    between atoms: C_7  and  C_9 
REMARK    9  A    between atoms: C_7  and  C_11 
REMARK   10  A    between atoms: C_9  and  C_10 
REMARK   11  A    between atoms: C_10  and  C_12 
REMARK   12  A    between atoms: C_18  and  C_22 
REMARK   13  A    between atoms: C_22  and  C_24 
ROOT
HETATM    1  N   UNK     0      -3.231  31.804  20.530  0.00  0.00    -0.196 NA
HETATM    2  C   UNK     0      -0.692  31.041  20.480  0.00  0.00     0.079 C 
HETATM    3  C   UNK     0      -2.122  31.464  20.515  0.00  0.00     0.074 C 
ENDROOT
BRANCH   2   4
HETATM    4  C   UNK     0      -0.417  30.319  19.093  0.00  0.00     0.004 C 
HETATM    5  C   UNK     0      -0.212  31.280  17.909  0.00  0.00     0.011 C 
HETATM    6  C   UNK     0      -1.510  29.302  18.710  0.00  0.00     0.011 C 
ENDBRANCH   2   4
BRANCH   2   7
HETATM    7  C   UNK     0       0.173  32.348  20.584  0.00  0.00     0.032 C 
BRANCH   7   8
HETATM    8  C   UNK     0      -0.332  33.389  21.606  0.00  0.00     0.032 C 
BRANCH   8   9
HETATM    9  C   UNK     0       0.755  33.826  22.593  0.00  0.00     0.272 C 
BRANCH   9  10
HETATM   10  N   UNK     0       0.252  33.902  23.958  0.00  0.00     0.084 N 
HETATM   11  C   UNK     0      -0.894  33.008  24.137  0.00  0.00     0.309 C 
BRANCH  10  12
HETATM   12  C   UNK     0       1.309  33.569  24.915  0.00  0.00     0.276 C 
BRANCH  12  13
HETATM   13  C   UNK     0       2.406  32.735  24.253  0.00  0.00     0.068 C 
BRANCH  13  14
HETATM   14  C   UNK     0       2.691  31.475  25.032  0.00  0.00    -0.054 A 
HETATM   15  C   UNK     0       3.746  30.646  24.653  0.00  0.00     0.046 A 
HETATM   16  C   UNK     0       4.012  29.481  25.374  0.00  0.00     0.102 A 
HETATM   17  C   UNK     0       3.221  29.145  26.473  0.00  0.00     0.101 A 
HETATM   18  C   UNK     0       2.165  29.975  26.851  0.00  0.00     0.040 A 
HETATM   19  C   UNK     0       1.901  31.140  26.131  0.00  0.00     0.010 A 
BRANCH  16  20
HETATM   20  O   UNK     0       5.045  28.678  24.995  0.00  0.00    -0.353 OA
HETATM   21  C   UNK     0       6.309  29.305  24.785  0.00  0.00     0.210 C 
ENDBRANCH  16  20
BRANCH  17  22
HETATM   22  O   UNK     0       3.469  28.011  27.185  0.00  0.00    -0.353 OA
HETATM   23  C   UNK     0       3.428  28.117  28.606  0.00  0.00     0.210 C 
ENDBRANCH  17  22
ENDBRANCH  13  14
ENDBRANCH  12  13
ENDBRANCH  10  12
ENDBRANCH   9  10
ENDBRANCH   8   9
ENDBRANCH   7   8
ENDBRANCH   2   7
BRANCH   2  24
HETATM   24  C   UNK     0      -0.317  30.078  21.631  0.00  0.00    -0.032 A 
HETATM   25  C   UNK     0      -1.303  29.617  22.504  0.00  0.00     0.048 A 
HETATM   26  C   UNK     0      -0.964  28.748  23.543  0.00  0.00     0.102 A 
HETATM   27  C   UNK     0       0.360  28.342  23.709  0.00  0.00     0.101 A 
HETATM   28  C   UNK     0       1.345  28.804  22.836  0.00  0.00     0.040 A 
HETATM   29  C   UNK     0       1.008  29.672  21.797  0.00  0.00     0.012 A 
BRANCH  26  30
HETATM   30  O   UNK     0      -1.935  28.305  24.388  0.00  0.00    -0.353 OA
HETATM   31  C   UNK     0      -2.955  27.479  23.828  0.00  0.00     0.210 C 
ENDBRANCH  26  30
BRANCH  27  32
HETATM   32  O   UNK     0       0.703  27.494  24.718  0.00  0.00    -0.353 OA
HETATM   33  C   UNK     0       1.604  26.437  24.398  0.00  0.00     0.210 C 
ENDBRANCH  27  32
ENDBRANCH   2  24
TORSDOF 13
