REMARK VINA RESULT:      -5.0      2.153      5.537
REMARK  13 active torsions:
REMARK  status: ('A' for Active; 'I' for Inactive)
REMARK    1  A    between atoms: O_1  and  C_19 
REMARK    2  A    between atoms: O_2  and  C_23 
REMARK    3  A    between atoms: O_3  and  C_27 
REMARK    4  A    between atoms: O_4  and  C_30 
REMARK    5  A    between atoms: N_5  and  C_12 
REMARK    6  A    between atoms: N_5  and  C_18 
REMARK    7  A    between atoms: C_7  and  C_8 
REMARK    8  A    between atoms: C_7  and  C_9 
REMARK    9  A    between atoms: C_7  and  C_11 
REMARK   10  A    between atoms: C_9  and  C_10 
REMARK   11  A    between atoms: C_10  and  C_12 
REMARK   12  A    between atoms: C_18  and  C_22 
REMARK   13  A    between atoms: C_22  and  C_24 
ROOT
HETATM    1  N   UNK     0      -5.059  34.566  22.283  0.00  0.00    -0.196 NA
HETATM    2  C   UNK     0      -2.838  33.520  23.287  0.00  0.00     0.079 C 
HETATM    3  C   UNK     0      -4.085  34.117  22.725  0.00  0.00     0.074 C 
ENDROOT
BRANCH   2   4
HETATM    4  C   UNK     0      -3.217  32.716  24.603  0.00  0.00     0.004 C 
HETATM    5  C   UNK     0      -2.073  31.860  25.172  0.00  0.00     0.011 C 
HETATM    6  C   UNK     0      -4.458  31.818  24.431  0.00  0.00     0.011 C 
ENDBRANCH   2   4
BRANCH   2   7
HETATM    7  C   UNK     0      -2.275  32.533  22.201  0.00  0.00     0.032 C 
BRANCH   7   8
HETATM    8  C   UNK     0      -2.626  32.894  20.742  0.00  0.00     0.032 C 
BRANCH   8   9
HETATM    9  C   UNK     0      -1.395  32.943  19.832  0.00  0.00     0.272 C 
BRANCH   9  10
HETATM   10  N   UNK     0      -1.598  32.194  18.599  0.00  0.00     0.084 N 
HETATM   11  C   UNK     0      -0.313  31.795  18.020  0.00  0.00     0.309 C 
BRANCH  10  12
HETATM   12  C   UNK     0      -2.431  31.015  18.843  0.00  0.00     0.276 C 
BRANCH  12  13
HETATM   13  C   UNK     0      -1.570  29.779  19.103  0.00  0.00     0.068 C 
BRANCH  13  14
HETATM   14  C   UNK     0      -1.565  29.404  20.565  0.00  0.00    -0.054 A 
HETATM   15  C   UNK     0      -2.747  28.998  21.184  0.00  0.00     0.046 A 
HETATM   16  C   UNK     0      -2.742  28.650  22.536  0.00  0.00     0.102 A 
HETATM   17  C   UNK     0      -1.555  28.709  23.267  0.00  0.00     0.101 A 
HETATM   18  C   UNK     0      -0.374  29.115  22.646  0.00  0.00     0.040 A 
HETATM   19  C   UNK     0      -0.378  29.462  21.295  0.00  0.00     0.010 A 
BRANCH  16  20
HETATM   20  O   UNK     0      -3.902  28.255  23.130  0.00  0.00    -0.353 OA
HETATM   21  C   UNK     0      -4.319  26.909  22.907  0.00  0.00     0.210 C 
ENDBRANCH  16  20
BRANCH  17  22
HETATM   22  O   UNK     0      -1.537  28.372  24.586  0.00  0.00    -0.353 OA
HETATM   23  C   UNK     0      -0.922  27.132  24.930  0.00  0.00     0.210 C 
ENDBRANCH  17  22
ENDBRANCH  13  14
ENDBRANCH  12  13
ENDBRANCH  10  12
ENDBRANCH   9  10
ENDBRANCH   8   9
ENDBRANCH   7   8
ENDBRANCH   2   7
BRANCH   2  24
HETATM   24  C   UNK     0      -1.763  34.576  23.634  0.00  0.00    -0.032 A 
HETATM   25  C   UNK     0      -0.469  34.448  23.127  0.00  0.00     0.048 A 
HETATM   26  C   UNK     0       0.500  35.401  23.439  0.00  0.00     0.102 A 
HETATM   27  C   UNK     0       0.177  36.482  24.260  0.00  0.00     0.101 A 
HETATM   28  C   UNK     0      -1.116  36.610  24.767  0.00  0.00     0.040 A 
HETATM   29  C   UNK     0      -2.087  35.658  24.454  0.00  0.00     0.012 A 
BRANCH  26  30
HETATM   30  O   UNK     0       1.758  35.265  22.938  0.00  0.00    -0.353 OA
HETATM   31  C   UNK     0       2.645  34.393  23.638  0.00  0.00     0.210 C 
ENDBRANCH  26  30
BRANCH  27  32
HETATM   32  O   UNK     0       1.114  37.420  24.572  0.00  0.00    -0.353 OA
HETATM   33  C   UNK     0       1.577  37.450  25.920  0.00  0.00     0.210 C 
ENDBRANCH  27  32
ENDBRANCH   2  24
TORSDOF 13
