REMARK  10 active torsions:
REMARK  status: ('A' for Active; 'I' for Inactive)
REMARK    1  A    between atoms: O_1  and  C_39 
REMARK    2  A    between atoms: O_2  and  C_40 
REMARK    3  A    between atoms: C_9  and  C_21 
REMARK    4  A    between atoms: C_10  and  C_22 
REMARK    5  A    between atoms: C_21  and  C_32 
REMARK    6  A    between atoms: C_22  and  C_33 
REMARK    7  A    between atoms: C_26  and  C_37 
REMARK    8  A    between atoms: C_27  and  C_38 
REMARK    9  A    between atoms: C_32  and  C_39 
REMARK   10  A    between atoms: C_33  and  C_40 
ROOT
HETATM    1  N   UNK     0      -2.525   1.927   0.286  0.00  0.00    -0.355 N 
HETATM    2  N   UNK     0      -2.694  -1.118   0.276  0.00  0.00    -0.355 N 
HETATM    3  N   UNK     0       0.405   1.517   0.238  0.00  0.00    -0.248 NA
HETATM    4  N   UNK     0       0.181  -1.340   0.497  0.00  0.00    -0.248 NA
HETATM    5  C   UNK     0       2.507   2.338   0.871  0.00  0.00    -0.021 A 
HETATM    6  C   UNK     0       2.059  -2.617   0.200  0.00  0.00    -0.021 A 
HETATM    7  C   UNK     0       1.648   1.206   0.466  0.00  0.00     0.066 A 
HETATM    8  C   UNK     0       1.630   3.352   0.862  0.00  0.00    -0.025 A 
HETATM    9  C   UNK     0       1.543  -1.264   0.334  0.00  0.00     0.066 A 
HETATM   10  C   UNK     0       1.055  -3.502   0.277  0.00  0.00    -0.025 A 
HETATM   11  C   UNK     0       0.314   2.872   0.465  0.00  0.00     0.066 A 
HETATM   12  C   UNK     0      -0.107  -2.609   0.463  0.00  0.00     0.066 A 
HETATM   13  C   UNK     0      -2.050   3.158  -0.111  0.00  0.00     0.041 A 
HETATM   14  C   UNK     0      -3.996  -0.692   0.275  0.00  0.00     0.041 A 
HETATM   15  C   UNK     0      -2.569  -2.459   0.540  0.00  0.00     0.045 A 
HETATM   16  C   UNK     0      -3.783   1.707  -0.230  0.00  0.00     0.045 A 
HETATM   17  C   UNK     0       2.266  -0.135   0.320  0.00  0.00     0.064 C 
HETATM   18  C   UNK     0      -3.049   3.753  -0.857  0.00  0.00    -0.023 A 
HETATM   19  C   UNK     0      -4.789  -1.905   0.560  0.00  0.00    -0.023 A 
HETATM   20  C   UNK     0      -4.130   2.845  -0.934  0.00  0.00    -0.002 A 
HETATM   21  C   UNK     0      -3.947  -2.960   0.718  0.00  0.00    -0.002 A 
HETATM   22  C   UNK     0      -0.782   3.633   0.311  0.00  0.00     0.062 C 
HETATM   23  C   UNK     0      -1.455  -3.204   0.625  0.00  0.00     0.062 C 
HETATM   24  C   UNK     0      -4.518   0.526   0.053  0.00  0.00     0.060 C 
HETATM   25  C   UNK     0       1.901   4.781   1.196  0.00  0.00     0.051 C 
HETATM   26  C   UNK     0       1.026  -4.979   0.192  0.00  0.00     0.051 C 
HETATM   27  C   UNK     0      -2.993   5.101  -1.466  0.00  0.00     0.051 C 
HETATM   28  C   UNK     0      -6.281  -1.873   0.644  0.00  0.00     0.051 C 
HETATM   29  H   UNK     0      -2.029   1.292   0.896  0.00  0.00     0.166 HD
HETATM   30  H   UNK     0      -1.903  -0.531   0.060  0.00  0.00     0.166 HD
ENDROOT
BRANCH   5  31
HETATM   31  C   UNK     0       3.947   2.275   1.206  0.00  0.00     0.052 C 
BRANCH  31  32
HETATM   32  C   UNK     0       4.852   2.539   0.003  0.00  0.00     0.115 C 
BRANCH  32  33
HETATM   33  C   UNK     0       6.313   2.435   0.370  0.00  0.00     0.139 C 
HETATM   34  O   UNK     0       6.715   2.160   1.493  0.00  0.00    -0.650 OA
BRANCH  33  35
HETATM   35  O   UNK     0       7.139   2.705  -0.671  0.00  0.00    -0.776 OA
HETATM   36  H   UNK     0       8.083   2.645  -0.414  0.00  0.00     0.167 HD
ENDBRANCH  33  35
ENDBRANCH  32  33
ENDBRANCH  31  32
ENDBRANCH   5  31
BRANCH   6  37
HETATM   37  C   UNK     0       3.510  -2.907   0.006  0.00  0.00     0.052 C 
BRANCH  37  38
HETATM   38  C   UNK     0       3.911  -2.926  -1.464  0.00  0.00     0.115 C 
BRANCH  38  39
HETATM   39  C   UNK     0       5.373  -3.259  -1.642  0.00  0.00     0.139 C 
HETATM   40  O   UNK     0       6.137  -3.489  -0.713  0.00  0.00    -0.650 OA
BRANCH  39  41
HETATM   41  O   UNK     0       5.761  -3.250  -2.941  0.00  0.00    -0.776 OA
HETATM   42  H   UNK     0       6.716  -3.456  -3.039  0.00  0.00     0.167 HD
ENDBRANCH  39  41
ENDBRANCH  38  39
ENDBRANCH  37  38
ENDBRANCH   6  37
BRANCH  20  43
HETATM   43  C   UNK     0      -5.360   3.049  -1.604  0.00  0.00     0.004 C 
HETATM   44  C   UNK     0      -6.172   2.131  -2.185  0.00  0.00     0.012 C 
ENDBRANCH  20  43
BRANCH  21  45
HETATM   45  C   UNK     0      -4.360  -4.310   1.007  0.00  0.00     0.004 C 
HETATM   46  C   UNK     0      -4.634  -5.212   0.064  0.00  0.00     0.012 C 
ENDBRANCH  21  45
TORSDOF 10
