REMARK VINA RESULT:     -12.0      0.000      0.000
REMARK  10 active torsions:
REMARK  status: ('A' for Active; 'I' for Inactive)
REMARK    1  A    between atoms: O_1  and  C_39 
REMARK    2  A    between atoms: O_2  and  C_40 
REMARK    3  A    between atoms: C_9  and  C_21 
REMARK    4  A    between atoms: C_10  and  C_22 
REMARK    5  A    between atoms: C_21  and  C_32 
REMARK    6  A    between atoms: C_22  and  C_33 
REMARK    7  A    between atoms: C_26  and  C_37 
REMARK    8  A    between atoms: C_27  and  C_38 
REMARK    9  A    between atoms: C_32  and  C_39 
REMARK   10  A    between atoms: C_33  and  C_40 
ROOT
HETATM    1  N   UNK     0     -24.946  -4.867  19.651  0.00  0.00    -0.355 N 
HETATM    2  N   UNK     0     -25.847  -6.345  17.140  0.00  0.00    -0.355 N 
HETATM    3  N   UNK     0     -23.606  -7.406  20.365  0.00  0.00    -0.248 NA
HETATM    4  N   UNK     0     -24.706  -8.819  18.112  0.00  0.00    -0.248 NA
HETATM    5  C   UNK     0     -22.897  -8.829  22.088  0.00  0.00    -0.021 A 
HETATM    6  C   UNK     0     -23.901 -10.908  17.630  0.00  0.00    -0.021 A 
HETATM    7  C   UNK     0     -23.281  -8.628  20.675  0.00  0.00     0.066 A 
HETATM    8  C   UNK     0     -23.036  -7.589  22.578  0.00  0.00    -0.025 A 
HETATM    9  C   UNK     0     -23.893  -9.817  18.592  0.00  0.00     0.066 A 
HETATM   10  C   UNK     0     -24.690 -10.599  16.591  0.00  0.00    -0.025 A 
HETATM   11  C   UNK     0     -23.470  -6.680  21.527  0.00  0.00     0.066 A 
HETATM   12  C   UNK     0     -25.162  -9.253  16.973  0.00  0.00     0.066 A 
HETATM   13  C   UNK     0     -24.052  -4.478  20.624  0.00  0.00     0.041 A 
HETATM   14  C   UNK     0     -26.358  -5.081  17.008  0.00  0.00     0.041 A 
HETATM   15  C   UNK     0     -26.371  -7.233  16.234  0.00  0.00     0.045 A 
HETATM   16  C   UNK     0     -25.182  -3.832  18.772  0.00  0.00     0.045 A 
HETATM   17  C   UNK     0     -23.227  -9.790  19.754  0.00  0.00     0.064 C 
HETATM   18  C   UNK     0     -23.750  -3.151  20.386  0.00  0.00    -0.023 A 
HETATM   19  C   UNK     0     -27.307  -5.175  15.880  0.00  0.00    -0.023 A 
HETATM   20  C   UNK     0     -24.453  -2.749  19.227  0.00  0.00    -0.002 A 
HETATM   21  C   UNK     0     -27.320  -6.451  15.414  0.00  0.00    -0.002 A 
HETATM   22  C   UNK     0     -23.663  -5.358  21.666  0.00  0.00     0.062 C 
HETATM   23  C   UNK     0     -26.108  -8.541  16.081  0.00  0.00     0.062 C 
HETATM   24  C   UNK     0     -26.093  -3.955  17.691  0.00  0.00     0.060 C 
HETATM   25  C   UNK     0     -22.796  -7.143  23.982  0.00  0.00     0.051 C 
HETATM   26  C   UNK     0     -25.034 -11.336  15.354  0.00  0.00     0.051 C 
HETATM   27  C   UNK     0     -22.849  -2.305  21.201  0.00  0.00     0.051 C 
HETATM   28  C   UNK     0     -28.087  -3.992  15.403  0.00  0.00     0.051 C 
HETATM   29  H   UNK     0     -25.388  -5.775  19.609  0.00  0.00     0.166 HD
HETATM   30  H   UNK     0     -25.126  -6.602  17.797  0.00  0.00     0.166 HD
ENDROOT
BRANCH   5  31
HETATM   31  C   UNK     0     -22.499 -10.106  22.719  0.00  0.00     0.052 C 
BRANCH  31  32
HETATM   32  C   UNK     0     -20.986 -10.248  22.879  0.00  0.00     0.115 C 
BRANCH  32  33
HETATM   33  C   UNK     0     -20.481  -9.501  24.091  0.00  0.00     0.139 C 
HETATM   34  O   UNK     0     -20.920  -9.662  25.222  0.00  0.00    -0.650 OA
BRANCH  33  35
HETATM   35  O   UNK     0     -19.503  -8.610  23.791  0.00  0.00    -0.776 OA
HETATM   36  H   UNK     0     -19.854  -7.829  23.314  0.00  0.00     0.167 HD
ENDBRANCH  33  35
ENDBRANCH  32  33
ENDBRANCH  31  32
ENDBRANCH   5  31
BRANCH   6  37
HETATM   37  C   UNK     0     -23.119 -12.163  17.833  0.00  0.00     0.052 C 
BRANCH  37  38
HETATM   38  C   UNK     0     -24.001 -13.346  18.212  0.00  0.00     0.115 C 
BRANCH  38  39
HETATM   39  C   UNK     0     -24.138 -14.330  17.075  0.00  0.00     0.139 C 
HETATM   40  O   UNK     0     -25.192 -14.872  16.767  0.00  0.00    -0.650 OA
BRANCH  39  41
HETATM   41  O   UNK     0     -22.963 -14.573  16.444  0.00  0.00    -0.776 OA
HETATM   42  H   UNK     0     -22.554 -15.414  16.743  0.00  0.00     0.167 HD
ENDBRANCH  39  41
ENDBRANCH  38  39
ENDBRANCH  37  38
ENDBRANCH   6  37
BRANCH  20  43
HETATM   43  C   UNK     0     -24.432  -1.467  18.627  0.00  0.00     0.004 C 
HETATM   44  C   UNK     0     -25.381  -0.499  18.661  0.00  0.00     0.012 C 
ENDBRANCH  20  43
BRANCH  21  45
HETATM   45  C   UNK     0     -28.126  -6.922  14.317  0.00  0.00     0.004 C 
HETATM   46  C   UNK     0     -27.715  -6.917  13.048  0.00  0.00     0.012 C 
ENDBRANCH  21  45
TORSDOF 10
