REMARK VINA RESULT:      -2.9      9.677     11.471
REMARK  8 active torsions:
REMARK  status: ('A' for Active; 'I' for Inactive)
REMARK    1  A    between atoms: N_1  and  C5_9 
REMARK    2  A    between atoms: N_1  and  C7_12 
REMARK    3  A    between atoms: N_1  and  C2_4 
REMARK    4  A    between atoms: C1_2  and  C2_4 
REMARK    5  A    between atoms: C2_4  and  C3_5 
REMARK    6  A    between atoms: C2_4  and  C4_7 
REMARK    7  A    between atoms: C5_9  and  C6_10 
REMARK    8  A    between atoms: C7_12  and  C8_13 
ROOT
HETATM    1  N   BTB B 401      86.670  77.436   8.330  1.00  8.94    -0.361 N 
ENDROOT
BRANCH   1   2
HETATM    2  C5  BTB B 401      87.181  78.171   9.504  1.00  8.62     0.133 C 
BRANCH   2   3
HETATM    3  C6  BTB B 401      86.901  79.664   9.342  1.00  8.59     0.206 C 
HETATM    4  O6  BTB B 401      88.011  80.311   8.746  1.00  8.83    -0.219 OA
ENDBRANCH   2   3
ENDBRANCH   1   2
BRANCH   1   5
HETATM    5  C7  BTB B 401      85.439  78.008   7.739  1.00  9.09     0.133 C 
BRANCH   5   6
HETATM    6  C8  BTB B 401      84.225  77.119   8.005  1.00  8.85     0.206 C 
HETATM    7  O8  BTB B 401      83.757  77.254   9.338  1.00  9.27    -0.219 OA
ENDBRANCH   5   6
ENDBRANCH   1   5
BRANCH   1   8
HETATM    8  C2  BTB B 401      87.670  76.796   7.444  1.00  8.64     0.153 C 
BRANCH   8   9
HETATM    9  C1  BTB B 401      87.345  75.314   7.229  1.00  8.44     0.207 C 
HETATM   10  O1  BTB B 401      86.977  75.040   5.884  1.00  8.22    -0.219 OA
ENDBRANCH   8   9
BRANCH   8  11
HETATM   11  C3  BTB B 401      89.042  76.868   8.115  1.00  8.31     0.207 C 
HETATM   12  O3  BTB B 401      89.778  75.653   8.034  1.00  7.68    -0.219 OA
ENDBRANCH   8  11
BRANCH   8  13
HETATM   13  C4  BTB B 401      87.749  77.467   6.071  1.00  8.73     0.207 C 
HETATM   14  O4  BTB B 401      88.856  78.350   5.971  1.00  9.08    -0.219 OA
ENDBRANCH   8  13
ENDBRANCH   1   8
TORSDOF 8
