REMARK VINA RESULT:      -3.0      0.000      0.000
REMARK  8 active torsions:
REMARK  status: ('A' for Active; 'I' for Inactive)
REMARK    1  A    between atoms: N_1  and  C5_9 
REMARK    2  A    between atoms: N_1  and  C7_12 
REMARK    3  A    between atoms: N_1  and  C2_4 
REMARK    4  A    between atoms: C1_2  and  C2_4 
REMARK    5  A    between atoms: C2_4  and  C3_5 
REMARK    6  A    between atoms: C2_4  and  C4_7 
REMARK    7  A    between atoms: C5_9  and  C6_10 
REMARK    8  A    between atoms: C7_12  and  C8_13 
ROOT
HETATM    1  N   BTB B 401      78.482  77.169  14.984  1.00  8.94    -0.361 N 
ENDROOT
BRANCH   1   2
HETATM    2  C5  BTB B 401      77.370  77.114  15.955  1.00  8.62     0.133 C 
BRANCH   2   3
HETATM    3  C6  BTB B 401      76.203  77.960  15.451  1.00  8.59     0.206 C 
HETATM    4  O6  BTB B 401      75.989  79.066  16.310  1.00  8.83    -0.219 OA
ENDBRANCH   2   3
ENDBRANCH   1   2
BRANCH   1   5
HETATM    5  C7  BTB B 401      79.541  78.147  15.322  1.00  9.09     0.133 C 
BRANCH   5   6
HETATM    6  C8  BTB B 401      79.512  78.513  16.806  1.00  8.85     0.206 C 
HETATM    7  O8  BTB B 401      80.482  79.498  17.123  1.00  9.27    -0.219 OA
ENDBRANCH   5   6
ENDBRANCH   1   5
BRANCH   1   8
HETATM    8  C2  BTB B 401      78.852  75.905  14.306  1.00  8.64     0.153 C 
BRANCH   8   9
HETATM    9  C1  BTB B 401      78.686  76.025  12.788  1.00  8.44     0.207 C 
HETATM   10  O1  BTB B 401      77.930  74.950  12.248  1.00  8.22    -0.219 OA
ENDBRANCH   8   9
BRANCH   8  11
HETATM   11  C3  BTB B 401      77.911  74.797  14.780  1.00  8.31     0.207 C 
HETATM   12  O3  BTB B 401      78.588  73.615  15.194  1.00  7.68    -0.219 OA
ENDBRANCH   8  11
BRANCH   8  13
HETATM   13  C4  BTB B 401      80.297  75.489  14.592  1.00  8.73     0.207 C 
HETATM   14  O4  BTB B 401      81.091  75.472  13.415  1.00  9.08    -0.219 OA
ENDBRANCH   8  13
ENDBRANCH   1   8
TORSDOF 8
