REMARK VINA RESULT:      -2.9      9.667     11.580
REMARK  8 active torsions:
REMARK  status: ('A' for Active; 'I' for Inactive)
REMARK    1  A    between atoms: N_1  and  C5_9 
REMARK    2  A    between atoms: N_1  and  C7_12 
REMARK    3  A    between atoms: N_1  and  C2_4 
REMARK    4  A    between atoms: C1_2  and  C2_4 
REMARK    5  A    between atoms: C2_4  and  C3_5 
REMARK    6  A    between atoms: C2_4  and  C4_7 
REMARK    7  A    between atoms: C5_9  and  C6_10 
REMARK    8  A    between atoms: C7_12  and  C8_13 
ROOT
HETATM    1  N   BTB B 401      86.663  77.459   8.340  1.00  8.94    -0.361 N 
ENDROOT
BRANCH   1   2
HETATM    2  C5  BTB B 401      87.170  78.202   9.512  1.00  8.62     0.133 C 
BRANCH   2   3
HETATM    3  C6  BTB B 401      86.923  79.697   9.322  1.00  8.59     0.206 C 
HETATM    4  O6  BTB B 401      88.029  80.299   8.671  1.00  8.83    -0.219 OA
ENDBRANCH   2   3
ENDBRANCH   1   2
BRANCH   1   5
HETATM    5  C7  BTB B 401      85.440  78.032   7.735  1.00  9.09     0.133 C 
BRANCH   5   6
HETATM    6  C8  BTB B 401      84.215  77.162   8.020  1.00  8.85     0.206 C 
HETATM    7  O8  BTB B 401      83.766  77.309   9.358  1.00  9.27    -0.219 OA
ENDBRANCH   5   6
ENDBRANCH   1   5
BRANCH   1   8
HETATM    8  C2  BTB B 401      87.667  76.807   7.466  1.00  8.64     0.153 C 
BRANCH   8   9
HETATM    9  C1  BTB B 401      89.073  76.916   8.066  1.00  8.44     0.207 C 
HETATM   10  O1  BTB B 401      89.748  75.667   8.070  1.00  8.22    -0.219 OA
ENDBRANCH   8   9
BRANCH   8  11
HETATM   11  C3  BTB B 401      87.690  77.527   6.118  1.00  8.31     0.207 C 
HETATM   12  O3  BTB B 401      88.837  78.347   5.932  1.00  7.68    -0.219 OA
ENDBRANCH   8  11
BRANCH   8  13
HETATM   13  C4  BTB B 401      87.366  75.325   7.236  1.00  8.73     0.207 C 
HETATM   14  O4  BTB B 401      86.805  75.085   5.954  1.00  9.08    -0.219 OA
ENDBRANCH   8  13
ENDBRANCH   1   8
TORSDOF 8
