REMARK VINA RESULT:      -3.8      1.935      3.968
REMARK  6 active torsions:
REMARK  status: ('A' for Active; 'I' for Inactive)
REMARK    1  A    between atoms: C1_1  and  O1_8 
REMARK    2  A    between atoms: C2_2  and  O2_9 
REMARK    3  A    between atoms: C3_3  and  O3_10 
REMARK    4  A    between atoms: C4_4  and  O4_11 
REMARK    5  A    between atoms: C5_5  and  C6_6 
REMARK    6  A    between atoms: C6_6  and  O6_13 
ROOT
HETATM    1  C1  AMG     0      52.301  31.811  26.001  0.00  0.00     0.290 C 
HETATM    2  C2  AMG     0      51.912  30.469  25.376  0.00  0.00     0.204 C 
HETATM    3  C3  AMG     0      53.183  29.705  25.002  0.00  0.00     0.183 C 
HETATM    4  C4  AMG     0      54.056  30.605  24.122  0.00  0.00     0.180 C 
HETATM    5  C5  AMG     0      54.284  31.936  24.842  0.00  0.00     0.179 C 
HETATM    6  O5  AMG     0      53.035  32.588  25.058  0.00  0.00    -0.349 OA
ENDROOT
BRANCH   5   7
HETATM    7  C6  AMG     0      55.182  32.829  23.983  0.00  0.00     0.198 C 
BRANCH   7   8
HETATM    8  O6  AMG     0      54.403  33.889  23.423  0.00  0.00    -0.398 OA
HETATM    9  HO6 AMG     0      53.508  33.795  23.777  0.00  0.00     0.209 HD
ENDBRANCH   7   8
ENDBRANCH   5   7
BRANCH   4  10
HETATM   10  O4  AMG     0      53.399  30.841  22.876  0.00  0.00    -0.390 OA
HETATM   11  HO4 AMG     0      52.807  30.092  22.726  0.00  0.00     0.210 HD
ENDBRANCH   4  10
BRANCH   3  12
HETATM   12  O3  AMG     0      52.840  28.519  24.283  0.00  0.00    -0.390 OA
HETATM   13  HO3 AMG     0      52.595  27.853  24.941  0.00  0.00     0.210 HD
ENDBRANCH   3  12
BRANCH   1  14
HETATM   14  O1  AMG     0      53.108  31.580  27.158  0.00  0.00    -0.363 OA
HETATM   15  C7  AMG     0      52.902  32.688  28.034  0.00  0.00     0.204 C 
ENDBRANCH   1  14
BRANCH   2  16
HETATM   16  O2  AMG     0      51.153  29.706  26.315  0.00  0.00    -0.388 OA
HETATM   17  HO2 AMG     0      51.190  28.785  26.022  0.00  0.00     0.210 HD
ENDBRANCH   2  16
TORSDOF 6
