REMARK VINA RESULT:      -4.8      4.730      7.071
REMARK  12 active torsions:
REMARK  status: ('A' for Active; 'I' for Inactive)
REMARK    1  A    between atoms: O02_14  and  C03_9 
REMARK    2  A    between atoms: C04_8  and  O05_12 
REMARK    3  A    between atoms: C08_6  and  C09_5 
REMARK    4  A    between atoms: C09_5  and  C10_4 
REMARK    5  A    between atoms: C10_4  and  N11_2 
REMARK    6  A    between atoms: N11_2  and  C13_1 
REMARK    7  A    between atoms: C13_1  and  C14_16 
REMARK    8  A    between atoms: C14_16  and  C15_17 
REMARK    9  A    between atoms: C15_17  and  C16_18 
REMARK   10  A    between atoms: C16_18  and  C17_19 
REMARK   11  A    between atoms: C16_18  and  C19_21 
REMARK   12  A    between atoms: C16_18  and  C22_24 
ROOT
HETATM    1  C13 6U8 C1302       2.256  33.376  25.332  1.00 66.38     0.250 C 
ENDROOT
BRANCH   1   2
HETATM    2  N11 6U8 C1302       2.604  34.596  24.553  1.00 67.17     0.139 N 
HETATM    3  C12 6U8 C1302       4.058  34.868  24.527  1.00 78.58     0.285 C 
BRANCH   2   4
HETATM    4  C10 6U8 C1302       2.071  34.546  23.169  1.00 72.78     0.255 C 
BRANCH   4   5
HETATM    5  C09 6U8 C1302       0.537  34.844  22.965  1.00 82.74     0.062 C 
BRANCH   5   6
HETATM    6  C08 6U8 C1302      -0.133  33.547  22.468  1.00 82.73    -0.018 A 
HETATM    7  C07 6U8 C1302       0.439  32.872  21.400  1.00102.58     0.022 A 
HETATM    8  C04 6U8 C1302      -0.106  31.716  20.806  1.00 91.42     0.116 A 
HETATM    9  C03 6U8 C1302      -1.295  31.170  21.316  1.00 84.37     0.116 A 
HETATM   10  C33 6U8 C1302      -1.871  31.861  22.406  1.00 91.07     0.026 A 
HETATM   11  C32 6U8 C1302      -1.312  33.041  22.976  1.00 75.99    -0.002 A 
BRANCH   8  12
HETATM   12  O05 6U8 C1302       0.618  31.176  19.733  1.00 77.91    -0.326 OA
HETATM   13  C06 6U8 C1302       0.204  31.710  18.488  1.00 74.44     0.181 C 
ENDBRANCH   8  12
BRANCH   9  14
HETATM   14  O02 6U8 C1302      -1.924  29.990  20.805  1.00 50.59    -0.326 OA
HETATM   15  C01 6U8 C1302      -2.894  29.270  21.588  1.00 52.14     0.181 C 
ENDBRANCH   9  14
ENDBRANCH   5   6
ENDBRANCH   4   5
ENDBRANCH   2   4
ENDBRANCH   1   2
BRANCH   1  16
HETATM   16  C14 6U8 C1302       3.004  32.108  24.836  1.00 85.62     0.036 C 
BRANCH  16  17
HETATM   17  C15 6U8 C1302       2.089  31.003  24.238  1.00118.04     0.012 C 
BRANCH  17  18
HETATM   18  C16 6U8 C1302       1.870  29.586  24.854  1.00128.94     0.058 C 
BRANCH  18  19
HETATM   19  C17 6U8 C1302       0.467  29.618  25.504  1.00122.68     0.099 C 
HETATM   20  N18 6U8 C1302      -0.307  30.488  25.355  1.00116.46    -0.151 N 
ENDBRANCH  18  19
BRANCH  18  21
HETATM   21  C19 6U8 C1302       1.759  28.411  23.818  1.00116.84     0.009 C 
HETATM   22  C20 6U8 C1302       1.120  28.630  22.435  1.00110.32     0.001 C 
HETATM   23  C21 6U8 C1302       1.304  27.057  24.400  1.00123.34     0.001 C 
ENDBRANCH  18  21
BRANCH  18  24
HETATM   24  C22 6U8 C1302       3.006  29.288  25.880  1.00121.20    -0.011 A 
HETATM   25  C23 6U8 C1302       2.610  29.308  27.224  1.00 86.28    -0.003 A 
HETATM   26  C24 6U8 C1302       3.501  29.073  28.252  1.00 85.42    -0.000 A 
HETATM   27  C27 6U8 C1302       4.833  28.810  27.980  1.00103.47     0.001 A 
HETATM   28  C30 6U8 C1302       5.263  28.784  26.649  1.00126.51     0.006 A 
HETATM   29  C31 6U8 C1302       4.380  29.009  25.585  1.00159.30     0.031 A 
HETATM   30 BR32 6U8 C1302       5.224  28.919  23.810  1.00259.57    -0.050 Br
ENDBRANCH  18  24
ENDBRANCH  17  18
ENDBRANCH  16  17
ENDBRANCH   1  16
TORSDOF 12
