REMARK VINA RESULT:      -4.8      2.597      6.038
REMARK  13 active torsions:
REMARK  status: ('A' for Active; 'I' for Inactive)
REMARK    1  A    between atoms: O_1  and  C_19 
REMARK    2  A    between atoms: O_2  and  C_23 
REMARK    3  A    between atoms: O_3  and  C_27 
REMARK    4  A    between atoms: O_4  and  C_30 
REMARK    5  A    between atoms: N_5  and  C_12 
REMARK    6  A    between atoms: N_5  and  C_18 
REMARK    7  A    between atoms: C_7  and  C_8 
REMARK    8  A    between atoms: C_7  and  C_9 
REMARK    9  A    between atoms: C_7  and  C_11 
REMARK   10  A    between atoms: C_9  and  C_10 
REMARK   11  A    between atoms: C_10  and  C_12 
REMARK   12  A    between atoms: C_18  and  C_22 
REMARK   13  A    between atoms: C_22  and  C_24 
ROOT
HETATM    1  N   UNK     0       0.173  30.558  22.968  0.00  0.00    -0.196 NA
HETATM    2  C   UNK     0      -0.099  33.181  22.681  0.00  0.00     0.079 C 
HETATM    3  C   UNK     0       0.049  31.706  22.851  0.00  0.00     0.074 C 
ENDROOT
BRANCH   2   4
HETATM    4  C   UNK     0       1.331  33.851  22.847  0.00  0.00     0.004 C 
HETATM    5  C   UNK     0       2.145  33.317  24.038  0.00  0.00     0.011 C 
HETATM    6  C   UNK     0       1.272  35.388  22.949  0.00  0.00     0.011 C 
ENDBRANCH   2   4
BRANCH   2   7
HETATM    7  C   UNK     0      -0.637  33.421  21.224  0.00  0.00     0.032 C 
BRANCH   7   8
HETATM    8  C   UNK     0      -0.007  32.525  20.137  0.00  0.00     0.032 C 
BRANCH   8   9
HETATM    9  C   UNK     0      -0.636  32.737  18.756  0.00  0.00     0.272 C 
BRANCH   9  10
HETATM   10  N   UNK     0      -1.046  31.480  18.144  0.00  0.00     0.084 N 
HETATM   11  C   UNK     0      -0.045  30.438  18.386  0.00  0.00     0.309 C 
BRANCH  10  12
HETATM   12  C   UNK     0      -2.351  31.058  18.656  0.00  0.00     0.276 C 
BRANCH  12  13
HETATM   13  C   UNK     0      -2.236  29.749  19.438  0.00  0.00     0.068 C 
BRANCH  13  14
HETATM   14  C   UNK     0      -2.788  29.887  20.835  0.00  0.00    -0.054 A 
HETATM   15  C   UNK     0      -2.908  28.762  21.651  0.00  0.00     0.046 A 
HETATM   16  C   UNK     0      -3.418  28.890  22.944  0.00  0.00     0.102 A 
HETATM   17  C   UNK     0      -3.808  30.142  23.419  0.00  0.00     0.101 A 
HETATM   18  C   UNK     0      -3.687  31.266  22.602  0.00  0.00     0.040 A 
HETATM   19  C   UNK     0      -3.177  31.139  21.311  0.00  0.00     0.010 A 
BRANCH  16  20
HETATM   20  O   UNK     0      -3.531  27.784  23.732  0.00  0.00    -0.353 OA
HETATM   21  C   UNK     0      -4.585  26.873  23.422  0.00  0.00     0.210 C 
ENDBRANCH  16  20
BRANCH  17  22
HETATM   22  O   UNK     0      -4.307  30.280  24.679  0.00  0.00    -0.353 OA
HETATM   23  C   UNK     0      -3.447  30.861  25.656  0.00  0.00     0.210 C 
ENDBRANCH  17  22
ENDBRANCH  13  14
ENDBRANCH  12  13
ENDBRANCH  10  12
ENDBRANCH   9  10
ENDBRANCH   8   9
ENDBRANCH   7   8
ENDBRANCH   2   7
BRANCH   2  24
HETATM   24  C   UNK     0      -1.074  33.813  23.703  0.00  0.00    -0.032 A 
HETATM   25  C   UNK     0      -2.162  34.565  23.256  0.00  0.00     0.048 A 
HETATM   26  C   UNK     0      -3.041  35.135  24.178  0.00  0.00     0.102 A 
HETATM   27  C   UNK     0      -2.831  34.954  25.545  0.00  0.00     0.101 A 
HETATM   28  C   UNK     0      -1.744  34.204  25.991  0.00  0.00     0.040 A 
HETATM   29  C   UNK     0      -0.865  33.633  25.070  0.00  0.00     0.012 A 
BRANCH  26  30
HETATM   30  O   UNK     0      -4.098  35.865  23.729  0.00  0.00    -0.353 OA
HETATM   31  C   UNK     0      -5.169  35.149  23.117  0.00  0.00     0.210 C 
ENDBRANCH  26  30
BRANCH  27  32
HETATM   32  O   UNK     0      -3.683  35.506  26.455  0.00  0.00    -0.353 OA
HETATM   33  C   UNK     0      -3.366  36.811  26.931  0.00  0.00     0.210 C 
ENDBRANCH  27  32
ENDBRANCH   2  24
TORSDOF 13
