REMARK VINA RESULT:     -11.6      1.211      1.518
REMARK  6 active torsions:
REMARK  status: ('A' for Active; 'I' for Inactive)
REMARK    1  A    between atoms: C9_10  and  C11_11 
REMARK    2  A    between atoms: C11_11  and  C13_13 
REMARK    3  A    between atoms: C17_17  and  N21_19 
REMARK    4  A    between atoms: N21_19  and  S22_20 
REMARK    5  A    between atoms: S22_20  and  C25_23 
REMARK    6  A    between atoms: C25_23  and  C26_24 
ROOT
HETATM    1  C13 324 A 801     -37.827 -15.691 -44.084  1.00 42.26     0.095 A 
HETATM    2  C14 324 A 801     -39.076 -15.918 -43.533  1.00 40.48     0.145 A 
HETATM    3  C15 324 A 801     -39.467 -17.197 -43.168  1.00 41.22     0.032 A 
HETATM    4  C16 324 A 801     -38.616 -18.266 -43.411  1.00 44.04     0.025 A 
HETATM    5  C17 324 A 801     -37.348 -18.049 -43.969  1.00 44.34     0.121 A 
HETATM    6  C18 324 A 801     -36.972 -16.759 -44.335  1.00 44.82     0.164 A 
HETATM    7  F19 324 A 801     -39.893 -14.896 -43.318  1.00 41.47    -0.204 F 
HETATM    8  F20 324 A 801     -35.759 -16.532 -44.851  1.00 45.93    -0.202 F 
ENDROOT
BRANCH   1   9
HETATM    9  C11 324 A 801     -37.402 -14.294 -44.452  1.00 41.65     0.202 C 
HETATM   10  O12 324 A 801     -37.279 -14.010 -45.620  1.00 44.38    -0.286 OA
BRANCH   9  11
HETATM   11  C9  324 A 801     -37.095 -13.265 -43.393  1.00 39.63     0.061 A 
HETATM   12  C2  324 A 801     -36.934 -11.857 -43.625  1.00 39.42     0.041 A 
HETATM   13  C1  324 A 801     -37.057 -11.005 -44.764  1.00 39.89     0.016 A 
HETATM   14  C3  324 A 801     -36.637 -11.303 -42.399  1.00 39.90     0.163 A 
HETATM   15  C6  324 A 801     -36.830  -9.623 -44.584  1.00 40.79     0.077 A 
HETATM   16 CL10 324 A 801     -36.977  -8.575 -45.947  1.00 45.89    -0.081 Cl
HETATM   17  C5  324 A 801     -36.492  -9.141 -43.323  1.00 39.89     0.112 A 
HETATM   18  N4  324 A 801     -36.418  -9.966 -42.284  1.00 40.42    -0.224 NA
HETATM   19  N7  324 A 801     -36.572 -12.295 -41.473  1.00 39.01    -0.225 NA
HETATM   20  C8  324 A 801     -36.832 -13.459 -42.033  1.00 38.85     0.104 A 
ENDBRANCH   9  11
ENDBRANCH   1   9
BRANCH   5  21
HETATM   21  N21 324 A 801     -36.444 -19.119 -44.204  1.00 40.98    -0.160 NA
BRANCH  21  22
HETATM   22  S22 324 A 801     -35.925 -20.100 -42.988  1.00 38.91     0.265 S 
HETATM   23  O23 324 A 801     -34.740 -20.820 -43.388  1.00 35.82    -0.203 OA
HETATM   24  O24 324 A 801     -35.453 -19.306 -41.892  1.00 40.88    -0.203 OA
BRANCH  22  25
HETATM   25  C25 324 A 801     -37.237 -21.155 -42.407  1.00 38.43     0.146 C 
BRANCH  25  26
HETATM   26  C26 324 A 801     -37.105 -22.561 -42.954  1.00 36.75     0.019 C 
HETATM   27  C27 324 A 801     -37.606 -22.675 -44.376  1.00 35.00     0.001 C 
ENDBRANCH  25  26
ENDBRANCH  22  25
ENDBRANCH  21  22
ENDBRANCH   5  21
TORSDOF 6
