REMARK VINA RESULT:      -9.2      1.760      2.067
REMARK  6 active torsions:
REMARK  status: ('A' for Active; 'I' for Inactive)
REMARK    1  A    between atoms: C9_10  and  C11_11 
REMARK    2  A    between atoms: C11_11  and  C13_13 
REMARK    3  A    between atoms: C17_17  and  N21_19 
REMARK    4  A    between atoms: N21_19  and  S22_20 
REMARK    5  A    between atoms: S22_20  and  C25_23 
REMARK    6  A    between atoms: C25_23  and  C26_24 
ROOT
HETATM    1  C13 324 A 801     -37.975 -16.080 -43.403  1.00 42.26     0.095 A 
HETATM    2  C14 324 A 801     -39.264 -16.471 -43.085  1.00 40.48     0.145 A 
HETATM    3  C15 324 A 801     -39.630 -17.808 -43.133  1.00 41.22     0.032 A 
HETATM    4  C16 324 A 801     -38.708 -18.752 -43.561  1.00 44.04     0.025 A 
HETATM    5  C17 324 A 801     -37.400 -18.368 -43.887  1.00 44.34     0.121 A 
HETATM    6  C18 324 A 801     -37.048 -17.022 -43.838  1.00 44.82     0.164 A 
HETATM    7  F19 324 A 801     -40.147 -15.562 -42.692  1.00 41.47    -0.204 F 
HETATM    8  F20 324 A 801     -35.800 -16.641 -44.127  1.00 45.93    -0.202 F 
ENDROOT
BRANCH   1   9
HETATM    9  C11 324 A 801     -37.580 -14.629 -43.321  1.00 41.65     0.202 C 
HETATM   10  O12 324 A 801     -37.419 -14.129 -42.233  1.00 44.38    -0.286 OA
BRANCH   9  11
HETATM   11  C9  324 A 801     -37.420 -13.789 -44.563  1.00 39.63     0.061 A 
HETATM   12  C2  324 A 801     -37.224 -12.367 -44.586  1.00 39.42     0.041 A 
HETATM   13  C1  324 A 801     -37.055 -11.360 -43.589  1.00 39.89     0.016 A 
HETATM   14  C3  324 A 801     -37.159 -12.015 -45.916  1.00 39.90     0.163 A 
HETATM   15  C6  324 A 801     -36.862 -10.029 -44.020  1.00 40.79     0.077 A 
HETATM   16 CL10 324 A 801     -36.653  -8.796 -42.831  1.00 45.89    -0.081 Cl
HETATM   17  C5  324 A 801     -36.851  -9.742 -45.381  1.00 39.89     0.112 A 
HETATM   18  N4  324 A 801     -36.981 -10.716 -46.275  1.00 40.42    -0.224 NA
HETATM   19  N7  324 A 801     -37.345 -13.128 -46.675  1.00 39.01    -0.225 NA
HETATM   20  C8  324 A 801     -37.506 -14.184 -45.903  1.00 38.85     0.104 A 
ENDBRANCH   9  11
ENDBRANCH   1   9
BRANCH   5  21
HETATM   21  N21 324 A 801     -36.426 -19.316 -44.301  1.00 40.98    -0.160 NA
BRANCH  21  22
HETATM   22  S22 324 A 801     -36.221 -20.749 -43.517  1.00 38.91     0.265 S 
HETATM   23  O23 324 A 801     -36.806 -21.829 -44.274  1.00 35.82    -0.203 OA
HETATM   24  O24 324 A 801     -34.830 -21.097 -43.501  1.00 40.88    -0.203 OA
BRANCH  22  25
HETATM   25  C25 324 A 801     -36.806 -20.655 -41.838  1.00 38.43     0.146 C 
BRANCH  25  26
HETATM   26  C26 324 A 801     -35.767 -21.156 -40.857  1.00 36.75     0.019 C 
HETATM   27  C27 324 A 801     -35.808 -20.409 -39.543  1.00 35.00     0.001 C 
ENDBRANCH  25  26
ENDBRANCH  22  25
ENDBRANCH  21  22
ENDBRANCH   5  21
TORSDOF 6
