REMARK  13 active torsions:
REMARK  status: ('A' for Active; 'I' for Inactive)
REMARK    1  A    between atoms: O1_1  and  C13_19 
REMARK    2  A    between atoms: O2_2  and  C17_23 
REMARK    3  A    between atoms: O3_3  and  C21_27 
REMARK    4  A    between atoms: O4_4  and  C24_30 
REMARK    5  A    between atoms: N1_5  and  C6_12 
REMARK    6  A    between atoms: N1_5  and  C12_18 
REMARK    7  A    between atoms: C1_7  and  C2_8 
REMARK    8  A    between atoms: C1_7  and  C3_9 
REMARK    9  A    between atoms: C1_7  and  C5_11 
REMARK   10  A    between atoms: C3_9  and  C4_10 
REMARK   11  A    between atoms: C4_10  and  C6_12 
REMARK   12  A    between atoms: C12_18  and  C16_22 
REMARK   13  A    between atoms: C16_22  and  C18_24 
ROOT
HETATM    1  N2  UNK   900      -5.581  -1.617  -1.016  1.00  0.00    -0.196 NA
HETATM    2  C1  UNK   900      -3.433  -1.142   0.465  1.00  0.00     0.079 C 
HETATM    3  C9  UNK   900      -4.642  -1.400  -0.370  1.00  0.00     0.074 C 
ENDROOT
BRANCH   2   4
HETATM    4  C2  UNK   900      -3.823  -1.352   1.990  1.00  0.00     0.004 C 
HETATM    5  C7  UNK   900      -4.271  -2.782   2.337  1.00  0.00     0.011 C 
HETATM    6  C8  UNK   900      -4.906  -0.371   2.480  1.00  0.00     0.011 C 
ENDBRANCH   2   4
BRANCH   2   7
HETATM    7  C3  UNK   900      -2.350  -2.198   0.039  1.00  0.00     0.032 C 
BRANCH   7   8
HETATM    8  C4  UNK   900      -1.637  -1.903  -1.298  1.00  0.00     0.032 C 
BRANCH   8   9
HETATM    9  C6  UNK   900      -0.659  -3.010  -1.704  1.00  0.00     0.272 C 
BRANCH   9  10
HETATM   10  N1  UNK   900       0.380  -3.214  -0.703  1.00  0.00     0.084 N 
HETATM   11  C14 UNK   900       0.982  -4.541  -0.847  1.00  0.00     0.309 C 
BRANCH  10  12
HETATM   12  C12 UNK   900       1.409  -2.177  -0.808  1.00  0.00     0.276 C 
BRANCH  12  13
HETATM   13  C16 UNK   900       2.136  -1.990   0.523  1.00  0.00     0.068 C 
BRANCH  13  14
HETATM   14  C18 UNK   900       3.184  -0.908   0.435  1.00  0.00    -0.054 A 
HETATM   15  C19 UNK   900       4.488  -1.230   0.061  1.00  0.00     0.046 A 
HETATM   16  C21 UNK   900       5.457  -0.229  -0.022  1.00  0.00     0.102 A 
HETATM   17  C24 UNK   900       5.121   1.093   0.270  1.00  0.00     0.101 A 
HETATM   18  C23 UNK   900       3.816   1.414   0.644  1.00  0.00     0.040 A 
HETATM   19  C20 UNK   900       2.847   0.414   0.726  1.00  0.00     0.010 A 
BRANCH  16  20
HETATM   20  O3  UNK   900       6.728  -0.556  -0.388  1.00  0.00    -0.353 OA
HETATM   21  C26 UNK   900       6.989  -1.929  -0.670  1.00  0.00     0.210 C 
ENDBRANCH  16  20
BRANCH  17  22
HETATM   22  O4  UNK   900       6.057   2.079   0.193  1.00  0.00    -0.353 OA
HETATM   23  C27 UNK   900       5.631   3.403   0.507  1.00  0.00     0.210 C 
ENDBRANCH  17  22
ENDBRANCH  13  14
ENDBRANCH  12  13
ENDBRANCH  10  12
ENDBRANCH   9  10
ENDBRANCH   8   9
ENDBRANCH   7   8
ENDBRANCH   2   7
BRANCH   2  24
HETATM   24  C5  UNK   900      -2.864   0.285   0.283  1.00  0.00    -0.032 A 
HETATM   25  C10 UNK   900      -3.483   1.176  -0.595  1.00  0.00     0.048 A 
HETATM   26  C13 UNK   900      -2.970   2.463  -0.759  1.00  0.00     0.102 A 
HETATM   27  C17 UNK   900      -1.838   2.859  -0.046  1.00  0.00     0.101 A 
HETATM   28  C15 UNK   900      -1.220   1.968   0.831  1.00  0.00     0.040 A 
HETATM   29  C11 UNK   900      -1.733   0.681   0.996  1.00  0.00     0.012 A 
BRANCH  26  30
HETATM   30  O1  UNK   900      -3.583   3.323  -1.619  1.00  0.00    -0.353 OA
HETATM   31  C22 UNK   900      -4.734   2.840  -2.309  1.00  0.00     0.210 C 
ENDBRANCH  26  30
BRANCH  27  32
HETATM   32  O2  UNK   900      -1.328   4.113  -0.197  1.00  0.00    -0.353 OA
HETATM   33  C25 UNK   900      -0.170   4.438   0.568  1.00  0.00     0.210 C 
ENDBRANCH  27  32
ENDBRANCH   2  24
TORSDOF 13
