REMARK VINA RESULT:      -5.3      2.710      5.530
REMARK  13 active torsions:
REMARK  status: ('A' for Active; 'I' for Inactive)
REMARK    1  A    between atoms: O1_1  and  C13_19 
REMARK    2  A    between atoms: O2_2  and  C17_23 
REMARK    3  A    between atoms: O3_3  and  C21_27 
REMARK    4  A    between atoms: O4_4  and  C24_30 
REMARK    5  A    between atoms: N1_5  and  C6_12 
REMARK    6  A    between atoms: N1_5  and  C12_18 
REMARK    7  A    between atoms: C1_7  and  C2_8 
REMARK    8  A    between atoms: C1_7  and  C3_9 
REMARK    9  A    between atoms: C1_7  and  C5_11 
REMARK   10  A    between atoms: C3_9  and  C4_10 
REMARK   11  A    between atoms: C4_10  and  C6_12 
REMARK   12  A    between atoms: C12_18  and  C16_22 
REMARK   13  A    between atoms: C16_22  and  C18_24 
ROOT
HETATM    1  N2  UNK   900      -4.325  27.755  22.212  1.00  0.00    -0.196 NA
HETATM    2  C1  UNK   900      -2.237  29.279  22.801  1.00  0.00     0.079 C 
HETATM    3  C9  UNK   900      -3.417  28.428  22.473  1.00  0.00     0.074 C 
ENDROOT
BRANCH   2   4
HETATM    4  C2  UNK   900      -1.424  28.580  23.972  1.00  0.00     0.004 C 
HETATM    5  C7  UNK   900       0.061  28.337  23.654  1.00  0.00     0.011 C 
HETATM    6  C8  UNK   900      -2.047  27.247  24.432  1.00  0.00     0.011 C 
ENDBRANCH   2   4
BRANCH   2   7
HETATM    7  C3  UNK   900      -1.352  29.351  21.504  1.00  0.00     0.032 C 
BRANCH   7   8
HETATM    8  C4  UNK   900      -2.135  29.514  20.184  1.00  0.00     0.032 C 
BRANCH   8   9
HETATM    9  C6  UNK   900      -1.244  29.952  19.017  1.00  0.00     0.272 C 
BRANCH   9  10
HETATM   10  N1  UNK   900      -1.538  31.312  18.586  1.00  0.00     0.084 N 
HETATM   11  C14 UNK   900      -2.893  31.698  18.986  1.00  0.00     0.309 C 
BRANCH  10  12
HETATM   12  C12 UNK   900      -0.560  32.252  19.139  1.00  0.00     0.276 C 
BRANCH  12  13
HETATM   13  C16 UNK   900      -1.176  33.086  20.261  1.00  0.00     0.068 C 
BRANCH  13  14
HETATM   14  C18 UNK   900      -0.272  33.143  21.469  1.00  0.00    -0.054 A 
HETATM   15  C19 UNK   900      -0.135  34.334  22.181  1.00  0.00     0.046 A 
HETATM   16  C21 UNK   900       0.699  34.387  23.298  1.00  0.00     0.102 A 
HETATM   17  C24 UNK   900       1.396  33.248  23.702  1.00  0.00     0.101 A 
HETATM   18  C23 UNK   900       1.258  32.057  22.989  1.00  0.00     0.040 A 
HETATM   19  C20 UNK   900       0.423  32.004  21.873  1.00  0.00     0.010 A 
BRANCH  16  20
HETATM   20  O3  UNK   900       0.825  35.556  23.985  1.00  0.00    -0.353 OA
HETATM   21  C26 UNK   900       0.626  36.763  23.254  1.00  0.00     0.210 C 
ENDBRANCH  16  20
BRANCH  17  22
HETATM   22  O4  UNK   900       2.213  33.286  24.791  1.00  0.00    -0.353 OA
HETATM   23  C27 UNK   900       3.593  33.557  24.556  1.00  0.00     0.210 C 
ENDBRANCH  17  22
ENDBRANCH  13  14
ENDBRANCH  12  13
ENDBRANCH  10  12
ENDBRANCH   9  10
ENDBRANCH   8   9
ENDBRANCH   7   8
ENDBRANCH   2   7
BRANCH   2  24
HETATM   24  C5  UNK   900      -2.625  30.710  23.242  1.00  0.00    -0.032 A 
HETATM   25  C10 UNK   900      -3.600  31.417  22.537  1.00  0.00     0.048 A 
HETATM   26  C13 UNK   900      -3.950  32.708  22.935  1.00  0.00     0.102 A 
HETATM   27  C17 UNK   900      -3.326  33.291  24.037  1.00  0.00     0.101 A 
HETATM   28  C15 UNK   900      -2.352  32.584  24.742  1.00  0.00     0.040 A 
HETATM   29  C11 UNK   900      -2.001  31.293  24.344  1.00  0.00     0.012 A 
BRANCH  26  30
HETATM   30  O1  UNK   900      -4.903  33.387  22.238  1.00  0.00    -0.353 OA
HETATM   31  C22 UNK   900      -6.237  33.332  22.740  1.00  0.00     0.210 C 
ENDBRANCH  26  30
BRANCH  27  32
HETATM   32  O2  UNK   900      -3.660  34.550  24.436  1.00  0.00    -0.353 OA
HETATM   33  C25 UNK   900      -2.594  35.405  24.844  1.00  0.00     0.210 C 
ENDBRANCH  27  32
ENDBRANCH   2  24
TORSDOF 13
