REMARK VINA RESULT:      -5.2      2.872      6.068
REMARK  13 active torsions:
REMARK  status: ('A' for Active; 'I' for Inactive)
REMARK    1  A    between atoms: O1_1  and  C13_19 
REMARK    2  A    between atoms: O2_2  and  C17_23 
REMARK    3  A    between atoms: O3_3  and  C21_27 
REMARK    4  A    between atoms: O4_4  and  C24_30 
REMARK    5  A    between atoms: N1_5  and  C6_12 
REMARK    6  A    between atoms: N1_5  and  C12_18 
REMARK    7  A    between atoms: C1_7  and  C2_8 
REMARK    8  A    between atoms: C1_7  and  C3_9 
REMARK    9  A    between atoms: C1_7  and  C5_11 
REMARK   10  A    between atoms: C3_9  and  C4_10 
REMARK   11  A    between atoms: C4_10  and  C6_12 
REMARK   12  A    between atoms: C12_18  and  C16_22 
REMARK   13  A    between atoms: C16_22  and  C18_24 
ROOT
HETATM    1  N2  UNK   900       1.440  30.649  23.846  1.00  0.00    -0.196 NA
HETATM    2  C1  UNK   900       0.174  32.740  22.816  1.00  0.00     0.079 C 
HETATM    3  C9  UNK   900       0.878  31.561  23.400  1.00  0.00     0.074 C 
ENDROOT
BRANCH   2   4
HETATM    4  C2  UNK   900       0.724  34.052  23.522  1.00  0.00     0.004 C 
HETATM    5  C7  UNK   900       0.314  35.362  22.828  1.00  0.00     0.011 C 
HETATM    6  C8  UNK   900       2.255  34.051  23.694  1.00  0.00     0.011 C 
ENDBRANCH   2   4
BRANCH   2   7
HETATM    7  C3  UNK   900       0.524  32.769  21.285  1.00  0.00     0.032 C 
BRANCH   7   8
HETATM    8  C4  UNK   900       0.465  31.400  20.573  1.00  0.00     0.032 C 
BRANCH   8   9
HETATM    9  C6  UNK   900      -0.015  31.508  19.122  1.00  0.00     0.272 C 
BRANCH   9  10
HETATM   10  N1  UNK   900      -1.212  30.710  18.883  1.00  0.00     0.084 N 
HETATM   11  C14 UNK   900      -1.171  30.106  17.550  1.00  0.00     0.309 C 
BRANCH  10  12
HETATM   12  C12 UNK   900      -1.353  29.671  19.906  1.00  0.00     0.276 C 
BRANCH  12  13
HETATM   13  C16 UNK   900      -2.735  29.726  20.555  1.00  0.00     0.068 C 
BRANCH  13  14
HETATM   14  C18 UNK   900      -2.710  29.176  21.960  1.00  0.00    -0.054 A 
HETATM   15  C19 UNK   900      -3.906  28.919  22.628  1.00  0.00     0.046 A 
HETATM   16  C21 UNK   900      -3.883  28.408  23.927  1.00  0.00     0.102 A 
HETATM   17  C24 UNK   900      -2.664  28.156  24.556  1.00  0.00     0.101 A 
HETATM   18  C23 UNK   900      -1.468  28.414  23.886  1.00  0.00     0.040 A 
HETATM   19  C20 UNK   900      -1.490  28.923  22.587  1.00  0.00     0.010 A 
BRANCH  16  20
HETATM   20  O3  UNK   900      -5.058  28.162  24.571  1.00  0.00    -0.353 OA
HETATM   21  C26 UNK   900      -6.105  29.115  24.398  1.00  0.00     0.210 C 
ENDBRANCH  16  20
BRANCH  17  22
HETATM   22  O4  UNK   900      -2.627  27.659  25.823  1.00  0.00    -0.353 OA
HETATM   23  C27 UNK   900      -2.365  26.264  25.964  1.00  0.00     0.210 C 
ENDBRANCH  17  22
ENDBRANCH  13  14
ENDBRANCH  12  13
ENDBRANCH  10  12
ENDBRANCH   9  10
ENDBRANCH   8   9
ENDBRANCH   7   8
ENDBRANCH   2   7
BRANCH   2  24
HETATM   24  C5  UNK   900      -1.362  32.678  22.995  1.00  0.00    -0.032 A 
HETATM   25  C10 UNK   900      -1.906  32.195  24.186  1.00  0.00     0.048 A 
HETATM   26  C13 UNK   900      -3.291  32.139  24.348  1.00  0.00     0.102 A 
HETATM   27  C17 UNK   900      -4.131  32.567  23.319  1.00  0.00     0.101 A 
HETATM   28  C15 UNK   900      -3.586  33.049  22.129  1.00  0.00     0.040 A 
HETATM   29  C11 UNK   900      -2.201  33.106  21.967  1.00  0.00     0.012 A 
BRANCH  26  30
HETATM   30  O1  UNK   900      -3.810  31.665  25.514  1.00  0.00    -0.353 OA
HETATM   31  C22 UNK   900      -3.822  32.556  26.628  1.00  0.00     0.210 C 
ENDBRANCH  26  30
BRANCH  27  32
HETATM   32  O2  UNK   900      -5.484  32.518  23.465  1.00  0.00    -0.353 OA
HETATM   33  C25 UNK   900      -6.246  33.504  22.772  1.00  0.00     0.210 C 
ENDBRANCH  27  32
ENDBRANCH   2  24
TORSDOF 13
