REMARK VINA RESULT:      -5.2      3.141      5.722
REMARK  13 active torsions:
REMARK  status: ('A' for Active; 'I' for Inactive)
REMARK    1  A    between atoms: O1_1  and  C13_19 
REMARK    2  A    between atoms: O2_2  and  C17_23 
REMARK    3  A    between atoms: O3_3  and  C21_27 
REMARK    4  A    between atoms: O4_4  and  C24_30 
REMARK    5  A    between atoms: N1_5  and  C6_12 
REMARK    6  A    between atoms: N1_5  and  C12_18 
REMARK    7  A    between atoms: C1_7  and  C2_8 
REMARK    8  A    between atoms: C1_7  and  C3_9 
REMARK    9  A    between atoms: C1_7  and  C5_11 
REMARK   10  A    between atoms: C3_9  and  C4_10 
REMARK   11  A    between atoms: C4_10  and  C6_12 
REMARK   12  A    between atoms: C12_18  and  C16_22 
REMARK   13  A    between atoms: C16_22  and  C18_24 
ROOT
HETATM    1  N2  UNK   900       3.193  34.561  23.669  1.00  0.00    -0.196 NA
HETATM    2  C1  UNK   900       0.561  34.509  23.988  1.00  0.00     0.079 C 
HETATM    3  C9  UNK   900       2.041  34.532  23.802  1.00  0.00     0.074 C 
ENDROOT
BRANCH   2   4
HETATM    4  C2  UNK   900       0.236  33.711  25.322  1.00  0.00     0.004 C 
HETATM    5  C7  UNK   900       0.731  34.397  26.606  1.00  0.00     0.011 C 
HETATM    6  C8  UNK   900       0.768  32.264  25.308  1.00  0.00     0.011 C 
ENDBRANCH   2   4
BRANCH   2   7
HETATM    7  C3  UNK   900       0.095  36.003  24.132  1.00  0.00     0.032 C 
BRANCH   7   8
HETATM    8  C4  UNK   900       0.756  36.993  23.149  1.00  0.00     0.032 C 
BRANCH   8   9
HETATM    9  C6  UNK   900       1.156  38.313  23.817  1.00  0.00     0.272 C 
BRANCH   9  10
HETATM   10  N1  UNK   900       1.670  38.108  25.165  1.00  0.00     0.084 N 
HETATM   11  C14 UNK   900       3.135  38.105  25.163  1.00  0.00     0.309 C 
BRANCH  10  12
HETATM   12  C12 UNK   900       1.167  39.141  26.073  1.00  0.00     0.276 C 
BRANCH  12  13
HETATM   13  C16 UNK   900      -0.358  39.099  26.158  1.00  0.00     0.068 C 
BRANCH  13  14
HETATM   14  C18 UNK   900      -0.832  38.013  27.092  1.00  0.00    -0.054 A 
HETATM   15  C19 UNK   900      -1.954  37.252  26.764  1.00  0.00     0.046 A 
HETATM   16  C21 UNK   900      -2.391  36.246  27.627  1.00  0.00     0.102 A 
HETATM   17  C24 UNK   900      -1.706  36.002  28.817  1.00  0.00     0.101 A 
HETATM   18  C23 UNK   900      -0.584  36.763  29.144  1.00  0.00     0.040 A 
HETATM   19  C20 UNK   900      -0.146  37.768  28.281  1.00  0.00     0.010 A 
BRANCH  16  20
HETATM   20  O3  UNK   900      -3.489  35.511  27.296  1.00  0.00    -0.353 OA
HETATM   21  C26 UNK   900      -3.313  34.486  26.320  1.00  0.00     0.210 C 
ENDBRANCH  16  20
BRANCH  17  22
HETATM   22  O4  UNK   900      -2.122  35.024  29.668  1.00  0.00    -0.353 OA
HETATM   23  C27 UNK   900      -1.327  33.842  29.735  1.00  0.00     0.210 C 
ENDBRANCH  17  22
ENDBRANCH  13  14
ENDBRANCH  12  13
ENDBRANCH  10  12
ENDBRANCH   9  10
ENDBRANCH   8   9
ENDBRANCH   7   8
ENDBRANCH   2   7
BRANCH   2  24
HETATM   24  C5  UNK   900      -0.189  33.845  22.809  1.00  0.00    -0.032 A 
HETATM   25  C10 UNK   900      -1.582  33.902  22.747  1.00  0.00     0.048 A 
HETATM   26  C13 UNK   900      -2.257  33.303  21.684  1.00  0.00     0.102 A 
HETATM   27  C17 UNK   900      -1.541  32.647  20.682  1.00  0.00     0.101 A 
HETATM   28  C15 UNK   900      -0.149  32.590  20.745  1.00  0.00     0.040 A 
HETATM   29  C11 UNK   900       0.528  33.190  21.808  1.00  0.00     0.012 A 
BRANCH  26  30
HETATM   30  O1  UNK   900      -3.617  33.365  21.635  1.00  0.00    -0.353 OA
HETATM   31  C22 UNK   900      -4.263  34.205  22.590  1.00  0.00     0.210 C 
ENDBRANCH  26  30
BRANCH  27  32
HETATM   32  O2  UNK   900      -2.189  32.058  19.639  1.00  0.00    -0.353 OA
HETATM   33  C25 UNK   900      -1.408  31.734  18.491  1.00  0.00     0.210 C 
ENDBRANCH  27  32
ENDBRANCH   2  24
TORSDOF 13
