REMARK VINA RESULT:      -5.3      3.183      5.742
REMARK  13 active torsions:
REMARK  status: ('A' for Active; 'I' for Inactive)
REMARK    1  A    between atoms: O1_1  and  C13_19 
REMARK    2  A    between atoms: O2_2  and  C17_23 
REMARK    3  A    between atoms: O3_3  and  C21_27 
REMARK    4  A    between atoms: O4_4  and  C24_30 
REMARK    5  A    between atoms: N1_5  and  C6_12 
REMARK    6  A    between atoms: N1_5  and  C12_18 
REMARK    7  A    between atoms: C1_7  and  C2_8 
REMARK    8  A    between atoms: C1_7  and  C3_9 
REMARK    9  A    between atoms: C1_7  and  C5_11 
REMARK   10  A    between atoms: C3_9  and  C4_10 
REMARK   11  A    between atoms: C4_10  and  C6_12 
REMARK   12  A    between atoms: C12_18  and  C16_22 
REMARK   13  A    between atoms: C16_22  and  C18_24 
ROOT
HETATM    1  N2  UNK   900      -0.395  29.080  23.163  1.00  0.00    -0.196 NA
HETATM    2  C1  UNK   900      -2.926  29.519  22.501  1.00  0.00     0.079 C 
HETATM    3  C9  UNK   900      -1.505  29.266  22.880  1.00  0.00     0.074 C 
ENDROOT
BRANCH   2   4
HETATM    4  C2  UNK   900      -3.340  30.954  23.040  1.00  0.00     0.004 C 
HETATM    5  C7  UNK   900      -3.447  32.033  21.949  1.00  0.00     0.011 C 
HETATM    6  C8  UNK   900      -2.408  31.478  24.150  1.00  0.00     0.011 C 
ENDBRANCH   2   4
BRANCH   2   7
HETATM    7  C3  UNK   900      -2.991  29.498  20.931  1.00  0.00     0.032 C 
BRANCH   7   8
HETATM    8  C4  UNK   900      -1.654  29.189  20.224  1.00  0.00     0.032 C 
BRANCH   8   9
HETATM    9  C6  UNK   900      -1.469  29.991  18.932  1.00  0.00     0.272 C 
BRANCH   9  10
HETATM   10  N1  UNK   900      -0.126  30.546  18.822  1.00  0.00     0.084 N 
HETATM   11  C14 UNK   900      -0.092  31.621  17.828  1.00  0.00     0.309 C 
BRANCH  10  12
HETATM   12  C12 UNK   900       0.335  31.043  20.120  1.00  0.00     0.276 C 
BRANCH  12  13
HETATM   13  C16 UNK   900      -0.136  32.477  20.357  1.00  0.00     0.068 C 
BRANCH  13  14
HETATM   14  C18 UNK   900       0.141  32.924  21.772  1.00  0.00    -0.054 A 
HETATM   15  C19 UNK   900      -0.427  34.103  22.253  1.00  0.00     0.046 A 
HETATM   16  C21 UNK   900      -0.173  34.516  23.562  1.00  0.00     0.102 A 
HETATM   17  C24 UNK   900       0.651  33.750  24.387  1.00  0.00     0.101 A 
HETATM   18  C23 UNK   900       1.218  32.571  23.904  1.00  0.00     0.040 A 
HETATM   19  C20 UNK   900       0.963  32.157  22.597  1.00  0.00     0.010 A 
BRANCH  16  20
HETATM   20  O3  UNK   900      -0.733  35.670  24.020  1.00  0.00    -0.353 OA
HETATM   21  C26 UNK   900      -2.098  35.611  24.427  1.00  0.00     0.210 C 
ENDBRANCH  16  20
BRANCH  17  22
HETATM   22  O4  UNK   900       0.907  34.142  25.666  1.00  0.00    -0.353 OA
HETATM   23  C27 UNK   900       2.191  34.704  25.926  1.00  0.00     0.210 C 
ENDBRANCH  17  22
ENDBRANCH  13  14
ENDBRANCH  12  13
ENDBRANCH  10  12
ENDBRANCH   9  10
ENDBRANCH   8   9
ENDBRANCH   7   8
ENDBRANCH   2   7
BRANCH   2  24
HETATM   24  C5  UNK   900      -3.903  28.465  23.074  1.00  0.00    -0.032 A 
HETATM   25  C10 UNK   900      -3.683  27.108  22.836  1.00  0.00     0.048 A 
HETATM   26  C13 UNK   900      -4.564  26.157  23.353  1.00  0.00     0.102 A 
HETATM   27  C17 UNK   900      -5.665  26.564  24.107  1.00  0.00     0.101 A 
HETATM   28  C15 UNK   900      -5.884  27.921  24.344  1.00  0.00     0.040 A 
HETATM   29  C11 UNK   900      -5.003  28.872  23.828  1.00  0.00     0.012 A 
BRANCH  26  30
HETATM   30  O1  UNK   900      -4.338  24.836  23.113  1.00  0.00    -0.353 OA
HETATM   31  C22 UNK   900      -3.315  24.203  23.880  1.00  0.00     0.210 C 
ENDBRANCH  26  30
BRANCH  27  32
HETATM   32  O2  UNK   900      -6.532  25.646  24.617  1.00  0.00    -0.353 OA
HETATM   33  C25 UNK   900      -7.854  26.093  24.904  1.00  0.00     0.210 C 
ENDBRANCH  27  32
ENDBRANCH   2  24
TORSDOF 13
