REMARK VINA RESULT:      -5.4      0.000      0.000
REMARK  13 active torsions:
REMARK  status: ('A' for Active; 'I' for Inactive)
REMARK    1  A    between atoms: O1_1  and  C13_19 
REMARK    2  A    between atoms: O2_2  and  C17_23 
REMARK    3  A    between atoms: O3_3  and  C21_27 
REMARK    4  A    between atoms: O4_4  and  C24_30 
REMARK    5  A    between atoms: N1_5  and  C6_12 
REMARK    6  A    between atoms: N1_5  and  C12_18 
REMARK    7  A    between atoms: C1_7  and  C2_8 
REMARK    8  A    between atoms: C1_7  and  C3_9 
REMARK    9  A    between atoms: C1_7  and  C5_11 
REMARK   10  A    between atoms: C3_9  and  C4_10 
REMARK   11  A    between atoms: C4_10  and  C6_12 
REMARK   12  A    between atoms: C12_18  and  C16_22 
REMARK   13  A    between atoms: C16_22  and  C18_24 
ROOT
HETATM    1  N2  UNK   900      -4.295  32.177  25.302  1.00  0.00    -0.196 NA
HETATM    2  C1  UNK   900      -3.664  33.477  23.078  1.00  0.00     0.079 C 
HETATM    3  C9  UNK   900      -4.018  32.738  24.324  1.00  0.00     0.074 C 
ENDROOT
BRANCH   2   4
HETATM    4  C2  UNK   900      -4.958  34.240  22.562  1.00  0.00     0.004 C 
HETATM    5  C7  UNK   900      -5.127  35.658  23.134  1.00  0.00     0.011 C 
HETATM    6  C8  UNK   900      -6.262  33.457  22.811  1.00  0.00     0.011 C 
ENDBRANCH   2   4
BRANCH   2   7
HETATM    7  C3  UNK   900      -2.549  34.516  23.465  1.00  0.00     0.032 C 
BRANCH   7   8
HETATM    8  C4  UNK   900      -1.841  34.247  24.810  1.00  0.00     0.032 C 
BRANCH   8   9
HETATM    9  C6  UNK   900      -1.028  35.449  25.301  1.00  0.00     0.272 C 
BRANCH   9  10
HETATM   10  N1  UNK   900      -0.383  36.156  24.203  1.00  0.00     0.084 N 
HETATM   11  C14 UNK   900      -0.669  37.591  24.274  1.00  0.00     0.309 C 
BRANCH  10  12
HETATM   12  C12 UNK   900       1.064  35.927  24.220  1.00  0.00     0.276 C 
BRANCH  12  13
HETATM   13  C16 UNK   900       1.517  35.194  22.958  1.00  0.00     0.068 C 
BRANCH  13  14
HETATM   14  C18 UNK   900       1.434  33.697  23.126  1.00  0.00    -0.054 A 
HETATM   15  C19 UNK   900       2.147  33.070  24.147  1.00  0.00     0.046 A 
HETATM   16  C21 UNK   900       2.068  31.686  24.304  1.00  0.00     0.102 A 
HETATM   17  C24 UNK   900       1.277  30.929  23.439  1.00  0.00     0.101 A 
HETATM   18  C23 UNK   900       0.564  31.558  22.418  1.00  0.00     0.040 A 
HETATM   19  C20 UNK   900       0.641  32.942  22.262  1.00  0.00     0.010 A 
BRANCH  16  20
HETATM   20  O3  UNK   900       2.770  31.084  25.305  1.00  0.00    -0.353 OA
HETATM   21  C26 UNK   900       2.263  31.227  26.630  1.00  0.00     0.210 C 
ENDBRANCH  16  20
BRANCH  17  22
HETATM   22  O4  UNK   900       1.192  29.578  23.581  1.00  0.00    -0.353 OA
HETATM   23  C27 UNK   900       0.926  28.818  22.405  1.00  0.00     0.210 C 
ENDBRANCH  17  22
ENDBRANCH  13  14
ENDBRANCH  12  13
ENDBRANCH  10  12
ENDBRANCH   9  10
ENDBRANCH   8   9
ENDBRANCH   7   8
ENDBRANCH   2   7
BRANCH   2  24
HETATM   24  C5  UNK   900      -3.142  32.553  21.953  1.00  0.00    -0.032 A 
HETATM   25  C10 UNK   900      -3.171  31.168  22.118  1.00  0.00     0.048 A 
HETATM   26  C13 UNK   900      -2.701  30.334  21.103  1.00  0.00     0.102 A 
HETATM   27  C17 UNK   900      -2.201  30.885  19.923  1.00  0.00     0.101 A 
HETATM   28  C15 UNK   900      -2.173  32.270  19.758  1.00  0.00     0.040 A 
HETATM   29  C11 UNK   900      -2.643  33.104  20.773  1.00  0.00     0.012 A 
BRANCH  26  30
HETATM   30  O1  UNK   900      -2.735  28.984  21.277  1.00  0.00    -0.353 OA
HETATM   31  C22 UNK   900      -3.637  28.478  22.260  1.00  0.00     0.210 C 
ENDBRANCH  26  30
BRANCH  27  32
HETATM   32  O2  UNK   900      -1.740  30.082  18.924  1.00  0.00    -0.353 OA
HETATM   33  C25 UNK   900      -1.436  30.706  17.679  1.00  0.00     0.210 C 
ENDBRANCH  27  32
ENDBRANCH   2  24
TORSDOF 13
