REMARK VINA RESULT:      -5.4      2.511      6.087
REMARK  13 active torsions:
REMARK  status: ('A' for Active; 'I' for Inactive)
REMARK    1  A    between atoms: O1_1  and  C13_19 
REMARK    2  A    between atoms: O2_2  and  C17_23 
REMARK    3  A    between atoms: O3_3  and  C21_27 
REMARK    4  A    between atoms: O4_4  and  C24_30 
REMARK    5  A    between atoms: N1_5  and  C6_12 
REMARK    6  A    between atoms: N1_5  and  C12_18 
REMARK    7  A    between atoms: C1_7  and  C2_8 
REMARK    8  A    between atoms: C1_7  and  C3_9 
REMARK    9  A    between atoms: C1_7  and  C5_11 
REMARK   10  A    between atoms: C3_9  and  C4_10 
REMARK   11  A    between atoms: C4_10  and  C6_12 
REMARK   12  A    between atoms: C12_18  and  C16_22 
REMARK   13  A    between atoms: C16_22  and  C18_24 
ROOT
HETATM    1  N2  UNK   900      -2.063  29.433  19.126  1.00  0.00    -0.196 NA
HETATM    2  C1  UNK   900      -0.830  31.647  19.908  1.00  0.00     0.079 C 
HETATM    3  C9  UNK   900      -1.519  30.397  19.475  1.00  0.00     0.074 C 
ENDROOT
BRANCH   2   4
HETATM    4  C2  UNK   900       0.209  32.062  18.781  1.00  0.00     0.004 C 
HETATM    5  C7  UNK   900      -0.367  32.996  17.702  1.00  0.00     0.011 C 
HETATM    6  C8  UNK   900       0.860  30.854  18.080  1.00  0.00     0.011 C 
ENDBRANCH   2   4
BRANCH   2   7
HETATM    7  C3  UNK   900      -1.937  32.753  20.049  1.00  0.00     0.032 C 
BRANCH   7   8
HETATM    8  C4  UNK   900      -3.188  32.330  20.848  1.00  0.00     0.032 C 
BRANCH   8   9
HETATM    9  C6  UNK   900      -3.582  33.354  21.918  1.00  0.00     0.272 C 
BRANCH   9  10
HETATM   10  N1  UNK   900      -2.891  33.118  23.179  1.00  0.00     0.084 N 
HETATM   11  C14 UNK   900      -2.879  34.334  23.995  1.00  0.00     0.309 C 
BRANCH  10  12
HETATM   12  C12 UNK   900      -3.520  32.020  23.915  1.00  0.00     0.276 C 
BRANCH  12  13
HETATM   13  C16 UNK   900      -2.505  30.925  24.239  1.00  0.00     0.068 C 
BRANCH  13  14
HETATM   14  C18 UNK   900      -3.059  29.551  23.950  1.00  0.00    -0.054 A 
HETATM   15  C19 UNK   900      -3.453  28.724  25.001  1.00  0.00     0.046 A 
HETATM   16  C21 UNK   900      -3.967  27.454  24.734  1.00  0.00     0.102 A 
HETATM   17  C24 UNK   900      -4.086  27.013  23.416  1.00  0.00     0.101 A 
HETATM   18  C23 UNK   900      -3.692  27.842  22.365  1.00  0.00     0.040 A 
HETATM   19  C20 UNK   900      -3.179  29.111  22.632  1.00  0.00     0.010 A 
BRANCH  16  20
HETATM   20  O3  UNK   900      -4.348  26.655  25.769  1.00  0.00    -0.353 OA
HETATM   21  C26 UNK   900      -5.606  26.937  26.378  1.00  0.00     0.210 C 
ENDBRANCH  16  20
BRANCH  17  22
HETATM   22  O4  UNK   900      -4.587  25.777  23.142  1.00  0.00    -0.353 OA
HETATM   23  C27 UNK   900      -3.684  24.677  23.237  1.00  0.00     0.210 C 
ENDBRANCH  17  22
ENDBRANCH  13  14
ENDBRANCH  12  13
ENDBRANCH  10  12
ENDBRANCH   9  10
ENDBRANCH   8   9
ENDBRANCH   7   8
ENDBRANCH   2   7
BRANCH   2  24
HETATM   24  C5  UNK   900      -0.080  31.491  21.251  1.00  0.00    -0.032 A 
HETATM   25  C10 UNK   900       0.165  30.219  21.770  1.00  0.00     0.048 A 
HETATM   26  C13 UNK   900       0.842  30.078  22.982  1.00  0.00     0.102 A 
HETATM   27  C17 UNK   900       1.274  31.209  23.675  1.00  0.00     0.101 A 
HETATM   28  C15 UNK   900       1.029  32.480  23.156  1.00  0.00     0.040 A 
HETATM   29  C11 UNK   900       0.353  32.622  21.944  1.00  0.00     0.012 A 
BRANCH  26  30
HETATM   30  O1  UNK   900       1.074  28.831  23.478  1.00  0.00    -0.353 OA
HETATM   31  C22 UNK   900       2.216  28.137  22.980  1.00  0.00     0.210 C 
ENDBRANCH  26  30
BRANCH  27  32
HETATM   32  O2  UNK   900       1.936  31.085  24.859  1.00  0.00    -0.353 OA
HETATM   33  C25 UNK   900       2.225  32.287  25.569  1.00  0.00     0.210 C 
ENDBRANCH  27  32
ENDBRANCH   2  24
TORSDOF 13
