REMARK VINA RESULT:      -5.4      3.563      6.938
REMARK  13 active torsions:
REMARK  status: ('A' for Active; 'I' for Inactive)
REMARK    1  A    between atoms: O1_1  and  C13_19 
REMARK    2  A    between atoms: O2_2  and  C17_23 
REMARK    3  A    between atoms: O3_3  and  C21_27 
REMARK    4  A    between atoms: O4_4  and  C24_30 
REMARK    5  A    between atoms: N1_5  and  C6_12 
REMARK    6  A    between atoms: N1_5  and  C12_18 
REMARK    7  A    between atoms: C1_7  and  C2_8 
REMARK    8  A    between atoms: C1_7  and  C3_9 
REMARK    9  A    between atoms: C1_7  and  C5_11 
REMARK   10  A    between atoms: C3_9  and  C4_10 
REMARK   11  A    between atoms: C4_10  and  C6_12 
REMARK   12  A    between atoms: C12_18  and  C16_22 
REMARK   13  A    between atoms: C16_22  and  C18_24 
ROOT
HETATM    1  N2  UNK   900       4.545  34.203  24.269  1.00  0.00    -0.196 NA
HETATM    2  C1  UNK   900       2.352  34.732  25.664  1.00  0.00     0.079 C 
HETATM    3  C9  UNK   900       3.580  34.430  24.873  1.00  0.00     0.074 C 
ENDROOT
BRANCH   2   4
HETATM    4  C2  UNK   900       2.321  33.768  26.927  1.00  0.00     0.004 C 
HETATM    5  C7  UNK   900       3.323  34.142  28.032  1.00  0.00     0.011 C 
HETATM    6  C8  UNK   900       2.529  32.285  26.563  1.00  0.00     0.011 C 
ENDBRANCH   2   4
BRANCH   2   7
HETATM    7  C3  UNK   900       2.467  36.227  26.134  1.00  0.00     0.032 C 
BRANCH   7   8
HETATM    8  C4  UNK   900       2.627  37.260  24.999  1.00  0.00     0.032 C 
BRANCH   8   9
HETATM    9  C6  UNK   900       2.179  38.666  25.411  1.00  0.00     0.272 C 
BRANCH   9  10
HETATM   10  N1  UNK   900       1.038  39.126  24.630  1.00  0.00     0.084 N 
HETATM   11  C14 UNK   900       1.046  38.518  23.298  1.00  0.00     0.309 C 
BRANCH  10  12
HETATM   12  C12 UNK   900      -0.218  38.819  25.319  1.00  0.00     0.276 C 
BRANCH  12  13
HETATM   13  C16 UNK   900      -0.054  38.940  26.834  1.00  0.00     0.068 C 
BRANCH  13  14
HETATM   14  C18 UNK   900      -0.750  37.814  27.558  1.00  0.00    -0.054 A 
HETATM   15  C19 UNK   900      -2.004  37.380  27.130  1.00  0.00     0.046 A 
HETATM   16  C21 UNK   900      -2.646  36.337  27.798  1.00  0.00     0.102 A 
HETATM   17  C24 UNK   900      -2.035  35.729  28.895  1.00  0.00     0.101 A 
HETATM   18  C23 UNK   900      -0.780  36.164  29.322  1.00  0.00     0.040 A 
HETATM   19  C20 UNK   900      -0.137  37.206  28.654  1.00  0.00     0.010 A 
BRANCH  16  20
HETATM   20  O3  UNK   900      -3.872  35.921  27.371  1.00  0.00    -0.353 OA
HETATM   21  C26 UNK   900      -4.537  36.742  26.413  1.00  0.00     0.210 C 
ENDBRANCH  16  20
BRANCH  17  22
HETATM   22  O4  UNK   900      -2.651  34.711  29.556  1.00  0.00    -0.353 OA
HETATM   23  C27 UNK   900      -3.098  34.977  30.884  1.00  0.00     0.210 C 
ENDBRANCH  17  22
ENDBRANCH  13  14
ENDBRANCH  12  13
ENDBRANCH  10  12
ENDBRANCH   9  10
ENDBRANCH   8   9
ENDBRANCH   7   8
ENDBRANCH   2   7
BRANCH   2  24
HETATM   24  C5  UNK   900       1.048  34.542  24.855  1.00  0.00    -0.032 A 
HETATM   25  C10 UNK   900       1.107  34.125  23.524  1.00  0.00     0.048 A 
HETATM   26  C13 UNK   900      -0.069  33.954  22.794  1.00  0.00     0.102 A 
HETATM   27  C17 UNK   900      -1.305  34.201  23.393  1.00  0.00     0.101 A 
HETATM   28  C15 UNK   900      -1.363  34.619  24.723  1.00  0.00     0.040 A 
HETATM   29  C11 UNK   900      -0.187  34.789  25.454  1.00  0.00     0.012 A 
BRANCH  26  30
HETATM   30  O1  UNK   900       0.002  33.547  21.496  1.00  0.00    -0.353 OA
HETATM   31  C22 UNK   900       0.315  32.175  21.263  1.00  0.00     0.210 C 
ENDBRANCH  26  30
BRANCH  27  32
HETATM   32  O2  UNK   900      -2.460  34.038  22.691  1.00  0.00    -0.353 OA
HETATM   33  C25 UNK   900      -3.682  34.199  23.407  1.00  0.00     0.210 C 
ENDBRANCH  27  32
ENDBRANCH   2  24
TORSDOF 13
