REMARK VINA RESULT:      -5.3      2.896      5.107
REMARK  13 active torsions:
REMARK  status: ('A' for Active; 'I' for Inactive)
REMARK    1  A    between atoms: O1_1  and  C13_19 
REMARK    2  A    between atoms: O2_2  and  C17_23 
REMARK    3  A    between atoms: O3_3  and  C21_27 
REMARK    4  A    between atoms: O4_4  and  C24_30 
REMARK    5  A    between atoms: N1_5  and  C6_12 
REMARK    6  A    between atoms: N1_5  and  C12_18 
REMARK    7  A    between atoms: C1_7  and  C2_8 
REMARK    8  A    between atoms: C1_7  and  C3_9 
REMARK    9  A    between atoms: C1_7  and  C5_11 
REMARK   10  A    between atoms: C3_9  and  C4_10 
REMARK   11  A    between atoms: C4_10  and  C6_12 
REMARK   12  A    between atoms: C12_18  and  C16_22 
REMARK   13  A    between atoms: C16_22  and  C18_24 
ROOT
HETATM    1  N2  UNK   900      -2.978  31.889  20.278  1.00  0.00    -0.196 NA
HETATM    2  C1  UNK   900      -0.582  30.775  20.499  1.00  0.00     0.079 C 
HETATM    3  C9  UNK   900      -1.933  31.396  20.381  1.00  0.00     0.074 C 
ENDROOT
BRANCH   2   4
HETATM    4  C2  UNK   900      -0.286  29.961  19.168  1.00  0.00     0.004 C 
HETATM    5  C7  UNK   900       0.395  30.784  18.062  1.00  0.00     0.011 C 
HETATM    6  C8  UNK   900      -1.542  29.293  18.575  1.00  0.00     0.011 C 
ENDBRANCH   2   4
BRANCH   2   7
HETATM    7  C3  UNK   900       0.449  31.952  20.647  1.00  0.00     0.032 C 
BRANCH   7   8
HETATM    8  C4  UNK   900       0.082  33.017  21.703  1.00  0.00     0.032 C 
BRANCH   8   9
HETATM    9  C6  UNK   900       0.954  32.931  22.959  1.00  0.00     0.272 C 
BRANCH   9  10
HETATM   10  N1  UNK   900       0.154  32.876  24.176  1.00  0.00     0.084 N 
HETATM   11  C14 UNK   900      -1.274  32.854  23.853  1.00  0.00     0.309 C 
BRANCH  10  12
HETATM   12  C12 UNK   900       0.510  31.701  24.975  1.00  0.00     0.276 C 
BRANCH  12  13
HETATM   13  C16 UNK   900       1.647  32.023  25.945  1.00  0.00     0.068 C 
BRANCH  13  14
HETATM   14  C18 UNK   900       2.714  30.957  25.921  1.00  0.00    -0.054 A 
HETATM   15  C19 UNK   900       3.077  30.309  27.101  1.00  0.00     0.046 A 
HETATM   16  C21 UNK   900       4.063  29.321  27.079  1.00  0.00     0.102 A 
HETATM   17  C24 UNK   900       4.686  28.984  25.878  1.00  0.00     0.101 A 
HETATM   18  C23 UNK   900       4.322  29.633  24.698  1.00  0.00     0.040 A 
HETATM   19  C20 UNK   900       3.336  30.619  24.719  1.00  0.00     0.010 A 
BRANCH  16  20
HETATM   20  O3  UNK   900       4.410  28.695  28.239  1.00  0.00    -0.353 OA
HETATM   21  C26 UNK   900       3.363  28.422  29.166  1.00  0.00     0.210 C 
ENDBRANCH  16  20
BRANCH  17  22
HETATM   22  O4  UNK   900       5.650  28.022  25.843  1.00  0.00    -0.353 OA
HETATM   23  C27 UNK   900       5.242  26.710  25.464  1.00  0.00     0.210 C 
ENDBRANCH  17  22
ENDBRANCH  13  14
ENDBRANCH  12  13
ENDBRANCH  10  12
ENDBRANCH   9  10
ENDBRANCH   8   9
ENDBRANCH   7   8
ENDBRANCH   2   7
BRANCH   2  24
HETATM   24  C5  UNK   900      -0.456  29.822  21.711  1.00  0.00    -0.032 A 
HETATM   25  C10 UNK   900      -1.585  29.504  22.468  1.00  0.00     0.048 A 
HETATM   26  C13 UNK   900      -1.471  28.644  23.561  1.00  0.00     0.102 A 
HETATM   27  C17 UNK   900      -0.230  28.102  23.897  1.00  0.00     0.101 A 
HETATM   28  C15 UNK   900       0.897  28.421  23.140  1.00  0.00     0.040 A 
HETATM   29  C11 UNK   900       0.784  29.280  22.047  1.00  0.00     0.012 A 
BRANCH  26  30
HETATM   30  O1  UNK   900      -2.580  28.342  24.292  1.00  0.00    -0.353 OA
HETATM   31  C22 UNK   900      -3.614  29.323  24.338  1.00  0.00     0.210 C 
ENDBRANCH  26  30
BRANCH  27  32
HETATM   32  O2  UNK   900      -0.107  27.261  24.961  1.00  0.00    -0.353 OA
HETATM   33  C25 UNK   900       0.906  27.568  25.916  1.00  0.00     0.210 C 
ENDBRANCH  27  32
ENDBRANCH   2  24
TORSDOF 13
