REMARK VINA RESULT:      -5.4      2.391      5.454
REMARK  13 active torsions:
REMARK  status: ('A' for Active; 'I' for Inactive)
REMARK    1  A    between atoms: O1_1  and  C13_19 
REMARK    2  A    between atoms: O2_2  and  C17_23 
REMARK    3  A    between atoms: O3_3  and  C21_27 
REMARK    4  A    between atoms: O4_4  and  C24_30 
REMARK    5  A    between atoms: N1_5  and  C6_12 
REMARK    6  A    between atoms: N1_5  and  C12_18 
REMARK    7  A    between atoms: C1_7  and  C2_8 
REMARK    8  A    between atoms: C1_7  and  C3_9 
REMARK    9  A    between atoms: C1_7  and  C5_11 
REMARK   10  A    between atoms: C3_9  and  C4_10 
REMARK   11  A    between atoms: C4_10  and  C6_12 
REMARK   12  A    between atoms: C12_18  and  C16_22 
REMARK   13  A    between atoms: C16_22  and  C18_24 
ROOT
HETATM    1  N2  UNK   900      -4.641  35.151  22.863  1.00  0.00    -0.196 NA
HETATM    2  C1  UNK   900      -3.022  33.052  22.806  1.00  0.00     0.079 C 
HETATM    3  C9  UNK   900      -3.926  34.238  22.841  1.00  0.00     0.074 C 
ENDROOT
BRANCH   2   4
HETATM    4  C2  UNK   900      -3.399  32.097  24.017  1.00  0.00     0.004 C 
HETATM    5  C7  UNK   900      -4.757  31.391  23.866  1.00  0.00     0.011 C 
HETATM    6  C8  UNK   900      -3.372  32.811  25.383  1.00  0.00     0.011 C 
ENDBRANCH   2   4
BRANCH   2   7
HETATM    7  C3  UNK   900      -3.287  32.316  21.442  1.00  0.00     0.032 C 
BRANCH   7   8
HETATM    8  C4  UNK   900      -2.514  32.882  20.231  1.00  0.00     0.032 C 
BRANCH   8   9
HETATM    9  C6  UNK   900      -2.497  31.921  19.039  1.00  0.00     0.272 C 
BRANCH   9  10
HETATM   10  N1  UNK   900      -1.157  31.753  18.492  1.00  0.00     0.084 N 
HETATM   11  C14 UNK   900      -0.199  32.598  19.207  1.00  0.00     0.309 C 
BRANCH  10  12
HETATM   12  C12 UNK   900      -0.743  30.350  18.559  1.00  0.00     0.276 C 
BRANCH  12  13
HETATM   13  C16 UNK   900      -1.838  29.485  19.183  1.00  0.00     0.068 C 
BRANCH  13  14
HETATM   14  C18 UNK   900      -1.575  29.229  20.647  1.00  0.00    -0.054 A 
HETATM   15  C19 UNK   900      -0.274  29.297  21.143  1.00  0.00     0.046 A 
HETATM   16  C21 UNK   900      -0.030  29.061  22.497  1.00  0.00     0.102 A 
HETATM   17  C24 UNK   900      -1.089  28.758  23.353  1.00  0.00     0.101 A 
HETATM   18  C23 UNK   900      -2.391  28.691  22.856  1.00  0.00     0.040 A 
HETATM   19  C20 UNK   900      -2.634  28.927  21.503  1.00  0.00     0.010 A 
BRANCH  16  20
HETATM   20  O3  UNK   900       1.245  29.130  22.970  1.00  0.00    -0.353 OA
HETATM   21  C26 UNK   900       2.021  27.934  22.918  1.00  0.00     0.210 C 
ENDBRANCH  16  20
BRANCH  17  22
HETATM   22  O4  UNK   900      -0.865  28.526  24.676  1.00  0.00    -0.353 OA
HETATM   23  C27 UNK   900      -0.971  27.177  25.125  1.00  0.00     0.210 C 
ENDBRANCH  17  22
ENDBRANCH  13  14
ENDBRANCH  12  13
ENDBRANCH  10  12
ENDBRANCH   9  10
ENDBRANCH   8   9
ENDBRANCH   7   8
ENDBRANCH   2   7
BRANCH   2  24
HETATM   24  C5  UNK   900      -1.524  33.427  22.908  1.00  0.00    -0.032 A 
HETATM   25  C10 UNK   900      -1.147  34.767  23.006  1.00  0.00     0.048 A 
HETATM   26  C13 UNK   900       0.204  35.106  23.099  1.00  0.00     0.102 A 
HETATM   27  C17 UNK   900       1.176  34.105  23.094  1.00  0.00     0.101 A 
HETATM   28  C15 UNK   900       0.797  32.766  22.996  1.00  0.00     0.040 A 
HETATM   29  C11 UNK   900      -0.553  32.427  22.904  1.00  0.00     0.012 A 
BRANCH  26  30
HETATM   30  O1  UNK   900       0.559  36.417  23.193  1.00  0.00    -0.353 OA
HETATM   31  C22 UNK   900       0.512  37.011  24.489  1.00  0.00     0.210 C 
ENDBRANCH  26  30
BRANCH  27  32
HETATM   32  O2  UNK   900       2.497  34.423  23.185  1.00  0.00    -0.353 OA
HETATM   33  C25 UNK   900       3.214  33.902  24.302  1.00  0.00     0.210 C 
ENDBRANCH  27  32
ENDBRANCH   2  24
TORSDOF 13
