REMARK VINA RESULT:      -7.5     14.285     16.065
REMARK  3 active torsions:
REMARK  status: ('A' for Active; 'I' for Inactive)
REMARK    1  A    between atoms: N1_2  and  C17_25 
REMARK       I    between atoms: N1_2  and  C21_29 
REMARK    2  A    between atoms: C10_18  and  C14_22 
REMARK    3  A    between atoms: C19_27  and  C20_28 
ROOT
HETATM    1  C1  52M A 301      17.756 -22.634  27.530  1.00 69.40     0.133 A 
HETATM    2  O1  52M A 301      17.396 -23.036  28.839  1.00 68.97    -0.190 OA
HETATM    3  C2  52M A 301      16.978 -23.090  26.468  1.00 66.06     0.052 A 
HETATM    4  O2  52M A 301      16.517 -23.174  24.082  1.00 64.90    -0.307 OA
HETATM    5  C3  52M A 301      17.299 -22.716  25.145  1.00 66.27     0.102 A 
HETATM    6  O3  52M A 301      15.634 -23.328  19.478  1.00 67.50    -0.286 OA
HETATM    7  C4  52M A 301      16.830 -22.804  22.767  1.00 68.03     0.103 A 
HETATM    8  C5  52M A 301      16.028 -23.277  21.709  1.00 61.71     0.067 A 
HETATM    9  C6  52M A 301      16.325 -22.920  20.395  1.00 63.37     0.198 A 
HETATM   10  C7  52M A 301      17.416 -22.092  20.131  1.00 64.96     0.042 A 
HETATM   11  C8  52M A 301      18.207 -21.623  21.179  1.00 63.08     0.005 A 
HETATM   12  C9  52M A 301      17.921 -21.984  22.513  1.00 69.86     0.023 A 
HETATM   13  C10 52M A 301      18.714 -21.517  23.582  1.00 71.07     0.004 A 
HETATM   14  C11 52M A 301      18.385 -21.895  24.902  1.00 71.68     0.023 A 
HETATM   15  C12 52M A 301      19.171 -21.435  25.980  1.00 67.71     0.004 A 
HETATM   16  C13 52M A 301      18.853 -21.806  27.289  1.00 64.14     0.028 A 
ENDROOT
BRANCH  13  17
HETATM   17  C14 52M A 301      19.973 -20.961  23.154  1.00 64.87     0.006 A 
HETATM   18  C15 52M A 301      21.044 -21.807  22.858  1.00 63.47     0.002 A 
HETATM   19  C16 52M A 301      22.271 -21.275  22.444  1.00 62.69     0.019 A 
HETATM   20  C17 52M A 301      22.444 -19.896  22.338  1.00 61.54     0.085 A 
HETATM   21  C18 52M A 301      21.377 -19.046  22.651  1.00 60.17     0.025 A 
HETATM   22  C19 52M A 301      20.145 -19.568  23.059  1.00 65.42     0.066 A 
BRANCH  20  23
HETATM   23  N1  52M A 301      23.755 -19.396  21.902  1.00 62.73    -0.211 NA
HETATM   24  C21 52M A 301      24.001 -18.656  20.672  1.00 74.16     0.270 C 
HETATM   25  S1  52M A 301      25.555 -18.167  20.319  1.00108.58    -0.028 SA
HETATM   26  O6  52M A 301      22.940 -18.318  19.735  1.00 71.64    -0.157 OA
ENDBRANCH  20  23
BRANCH  22  27
HETATM   27  C20 52M A 301      18.986 -18.607  23.394  1.00 72.40     0.211 C 
HETATM   28  O4  52M A 301      18.854 -18.129  24.563  1.00 74.98    -0.644 OA
HETATM   29  O5  52M A 301      18.148 -18.290  22.499  1.00 74.14    -0.644 OA
ENDBRANCH  22  27
ENDBRANCH  13  17
TORSDOF 3
