REMARK VINA RESULT:      -7.3     16.650     18.517
REMARK  3 active torsions:
REMARK  status: ('A' for Active; 'I' for Inactive)
REMARK    1  A    between atoms: N1_2  and  C17_25 
REMARK       I    between atoms: N1_2  and  C21_29 
REMARK    2  A    between atoms: C10_18  and  C14_22 
REMARK    3  A    between atoms: C19_27  and  C20_28 
ROOT
HETATM    1  C1  52M A 301      18.657 -22.593  21.077  1.00 69.40     0.133 A 
HETATM    2  O1  52M A 301      18.758 -23.229  19.816  1.00 68.97    -0.190 OA
HETATM    3  C2  52M A 301      18.386 -21.226  21.101  1.00 66.06     0.052 A 
HETATM    4  O2  52M A 301      18.005 -19.180  22.356  1.00 64.90    -0.307 OA
HETATM    5  C3  52M A 301      18.277 -20.550  22.335  1.00 66.27     0.102 A 
HETATM    6  O3  52M A 301      17.269 -15.237  24.788  1.00 67.50    -0.286 OA
HETATM    7  C4  52M A 301      17.894 -18.503  23.579  1.00 68.03     0.103 A 
HETATM    8  C5  52M A 301      17.619 -17.121  23.579  1.00 61.71     0.067 A 
HETATM    9  C6  52M A 301      17.506 -16.432  24.785  1.00 63.37     0.198 A 
HETATM   10  C7  52M A 301      17.665 -17.114  25.991  1.00 64.96     0.042 A 
HETATM   11  C8  52M A 301      17.935 -18.482  25.990  1.00 63.08     0.005 A 
HETATM   12  C9  52M A 301      18.059 -19.189  24.775  1.00 69.86     0.023 A 
HETATM   13  C10 52M A 301      18.333 -20.572  24.760  1.00 71.07     0.004 A 
HETATM   14  C11 52M A 301      18.438 -21.242  23.521  1.00 71.68     0.023 A 
HETATM   15  C12 52M A 301      18.713 -22.626  23.493  1.00 67.71     0.004 A 
HETATM   16  C13 52M A 301      18.821 -23.296  22.271  1.00 64.14     0.028 A 
ENDROOT
BRANCH  13  17
HETATM   17  C14 52M A 301      18.795 -21.074  26.030  1.00 64.87     0.006 A 
HETATM   18  C15 52M A 301      20.129 -20.899  26.405  1.00 63.47     0.002 A 
HETATM   19  C16 52M A 301      20.586 -21.383  27.636  1.00 62.69     0.019 A 
HETATM   20  C17 52M A 301      19.722 -22.061  28.494  1.00 61.54     0.085 A 
HETATM   21  C18 52M A 301      18.389 -22.252  28.112  1.00 60.17     0.025 A 
HETATM   22  C19 52M A 301      17.920 -21.766  26.887  1.00 65.42     0.066 A 
BRANCH  20  23
HETATM   23  N1  52M A 301      20.259 -22.552  29.771  1.00 62.73    -0.211 NA
HETATM   24  C21 52M A 301      21.477 -23.337  29.918  1.00 74.16     0.270 C 
HETATM   25  S1  52M A 301      21.944 -23.825  31.442  1.00108.58    -0.028 SA
HETATM   26  O6  52M A 301      22.310 -23.713  28.786  1.00 71.64    -0.157 OA
ENDBRANCH  20  23
BRANCH  22  27
HETATM   27  C20 52M A 301      16.446 -21.988  26.494  1.00 72.40     0.211 C 
HETATM   28  O4  52M A 301      16.100 -23.004  25.815  1.00 74.98    -0.644 OA
HETATM   29  O5  52M A 301      15.564 -21.150  26.845  1.00 74.14    -0.644 OA
ENDBRANCH  22  27
ENDBRANCH  13  17
TORSDOF 3
