REMARK VINA RESULT:      -7.3     14.330     16.511
REMARK  3 active torsions:
REMARK  status: ('A' for Active; 'I' for Inactive)
REMARK    1  A    between atoms: N1_2  and  C17_25 
REMARK       I    between atoms: N1_2  and  C21_29 
REMARK    2  A    between atoms: C10_18  and  C14_22 
REMARK    3  A    between atoms: C19_27  and  C20_28 
ROOT
HETATM    1  C1  52M A 301      19.349 -19.358  18.583  1.00 69.40     0.133 A 
HETATM    2  O1  52M A 301      19.068 -19.357  17.196  1.00 68.97    -0.190 OA
HETATM    3  C2  52M A 301      20.678 -19.496  18.981  1.00 66.06     0.052 A 
HETATM    4  O2  52M A 301      22.339 -19.640  20.751  1.00 64.90    -0.307 OA
HETATM    5  C3  52M A 301      21.007 -19.502  20.354  1.00 66.27     0.102 A 
HETATM    6  O3  52M A 301      25.537 -19.917  24.171  1.00 67.50    -0.286 OA
HETATM    7  C4  52M A 301      22.672 -19.646  22.112  1.00 68.03     0.103 A 
HETATM    8  C5  52M A 301      24.022 -19.786  22.491  1.00 61.71     0.067 A 
HETATM    9  C6  52M A 301      24.370 -19.794  23.841  1.00 63.37     0.198 A 
HETATM   10  C7  52M A 301      23.381 -19.662  24.813  1.00 64.96     0.042 A 
HETATM   11  C8  52M A 301      22.045 -19.521  24.437  1.00 63.08     0.005 A 
HETATM   12  C9  52M A 301      21.679 -19.519  23.075  1.00 69.86     0.023 A 
HETATM   13  C10 52M A 301      20.332 -19.378  22.681  1.00 71.07     0.004 A 
HETATM   14  C11 52M A 301      20.012 -19.370  21.306  1.00 71.68     0.023 A 
HETATM   15  C12 52M A 301      18.668 -19.231  20.899  1.00 67.71     0.004 A 
HETATM   16  C13 52M A 301      18.343 -19.225  19.540  1.00 64.14     0.028 A 
ENDROOT
BRANCH  13  17
HETATM   17  C14 52M A 301      19.400 -19.583  23.761  1.00 64.87     0.006 A 
HETATM   18  C15 52M A 301      18.932 -18.491  24.495  1.00 63.47     0.002 A 
HETATM   19  C16 52M A 301      18.027 -18.682  25.546  1.00 62.69     0.019 A 
HETATM   20  C17 52M A 301      17.597 -19.964  25.884  1.00 61.54     0.085 A 
HETATM   21  C18 52M A 301      18.078 -21.061  25.160  1.00 60.17     0.025 A 
HETATM   22  C19 52M A 301      18.977 -20.881  24.104  1.00 65.42     0.066 A 
BRANCH  20  23
HETATM   23  N1  52M A 301      16.650 -20.104  27.000  1.00 62.73    -0.211 NA
HETATM   24  C21 52M A 301      15.307 -19.542  27.030  1.00 74.16     0.270 C 
HETATM   25  S1  52M A 301      14.360 -19.784  28.381  1.00108.58    -0.028 SA
HETATM   26  O6  52M A 301      14.750 -18.779  25.923  1.00 71.64    -0.157 OA
ENDBRANCH  20  23
BRANCH  22  27
HETATM   27  C20 52M A 301      19.488 -22.107  23.322  1.00 72.40     0.211 C 
HETATM   28  O4  52M A 301      18.869 -22.531  22.298  1.00 74.98    -0.644 OA
HETATM   29  O5  52M A 301      20.536 -22.709  23.703  1.00 74.14    -0.644 OA
ENDBRANCH  22  27
ENDBRANCH  13  17
TORSDOF 3
