REMARK VINA RESULT:      -8.0      3.675      6.923
REMARK  3 active torsions:
REMARK  status: ('A' for Active; 'I' for Inactive)
REMARK    1  A    between atoms: N1_2  and  C17_25 
REMARK       I    between atoms: N1_2  and  C21_29 
REMARK    2  A    between atoms: C10_18  and  C14_22 
REMARK    3  A    between atoms: C19_27  and  C20_28 
ROOT
HETATM    1  C1  52M A 301      31.532 -17.692  10.965  1.00 69.40     0.133 A 
HETATM    2  O1  52M A 301      32.129 -16.508  11.461  1.00 68.97    -0.190 OA
HETATM    3  C2  52M A 301      32.335 -18.581  10.253  1.00 66.06     0.052 A 
HETATM    4  O2  52M A 301      32.591 -20.664   9.025  1.00 64.90    -0.307 OA
HETATM    5  C3  52M A 301      31.783 -19.775   9.738  1.00 66.27     0.102 A 
HETATM    6  O3  52M A 301      33.074 -24.686   6.660  1.00 67.50    -0.286 OA
HETATM    7  C4  52M A 301      32.049 -21.851   8.514  1.00 68.03     0.103 A 
HETATM    8  C5  52M A 301      32.880 -22.736   7.798  1.00 61.71     0.067 A 
HETATM    9  C6  52M A 301      32.357 -23.920   7.281  1.00 63.37     0.198 A 
HETATM   10  C7  52M A 301      31.012 -24.228   7.477  1.00 64.96     0.042 A 
HETATM   11  C8  52M A 301      30.191 -23.353   8.188  1.00 63.08     0.005 A 
HETATM   12  C9  52M A 301      30.706 -22.148   8.708  1.00 69.86     0.023 A 
HETATM   13  C10 52M A 301      29.886 -21.254   9.428  1.00 71.07     0.004 A 
HETATM   14  C11 52M A 301      30.446 -20.063   9.941  1.00 71.68     0.023 A 
HETATM   15  C12 52M A 301      29.636 -19.161  10.662  1.00 67.71     0.004 A 
HETATM   16  C13 52M A 301      30.182 -17.979  11.171  1.00 64.14     0.028 A 
ENDROOT
BRANCH  13  17
HETATM   17  C14 52M A 301      28.479 -21.523   9.272  1.00 64.87     0.006 A 
HETATM   18  C15 52M A 301      27.794 -21.029   8.159  1.00 63.47     0.002 A 
HETATM   19  C16 52M A 301      26.427 -21.285   8.001  1.00 62.69     0.019 A 
HETATM   20  C17 52M A 301      25.729 -22.020   8.959  1.00 61.54     0.085 A 
HETATM   21  C18 52M A 301      26.411 -22.501  10.082  1.00 60.17     0.025 A 
HETATM   22  C19 52M A 301      27.778 -22.257  10.247  1.00 65.42     0.066 A 
BRANCH  20  23
HETATM   23  N1  52M A 301      24.294 -22.253   8.740  1.00 62.73    -0.211 NA
HETATM   24  C21 52M A 301      23.220 -21.571   9.449  1.00 74.16     0.270 C 
HETATM   25  S1  52M A 301      21.640 -21.960   9.089  1.00108.58    -0.028 SA
HETATM   26  O6  52M A 301      23.469 -20.555  10.461  1.00 71.64    -0.157 OA
ENDBRANCH  20  23
BRANCH  22  27
HETATM   27  C20 52M A 301      28.503 -22.802  11.494  1.00 72.40     0.211 C 
HETATM   28  O4  52M A 301      28.834 -24.026  11.571  1.00 74.98    -0.644 OA
HETATM   29  O5  52M A 301      28.772 -22.027  12.459  1.00 74.14    -0.644 OA
ENDBRANCH  22  27
ENDBRANCH  13  17
TORSDOF 3
