REMARK VINA RESULT:      -8.0     12.890     14.919
REMARK  3 active torsions:
REMARK  status: ('A' for Active; 'I' for Inactive)
REMARK    1  A    between atoms: N1_2  and  C17_25 
REMARK       I    between atoms: N1_2  and  C21_29 
REMARK    2  A    between atoms: C10_18  and  C14_22 
REMARK    3  A    between atoms: C19_27  and  C20_28 
ROOT
HETATM    1  C1  52M A 301      16.275 -22.383  18.615  1.00 69.40     0.133 A 
HETATM    2  O1  52M A 301      15.306 -22.576  17.602  1.00 68.97    -0.190 OA
HETATM    3  C2  52M A 301      15.882 -22.567  19.940  1.00 66.06     0.052 A 
HETATM    4  O2  52M A 301      16.417 -22.572  22.312  1.00 64.90    -0.307 OA
HETATM    5  C3  52M A 301      16.814 -22.386  20.985  1.00 66.27     0.102 A 
HETATM    6  O3  52M A 301      17.461 -22.578  26.885  1.00 67.50    -0.286 OA
HETATM    7  C4  52M A 301      17.339 -22.394  23.353  1.00 68.03     0.103 A 
HETATM    8  C5  52M A 301      16.919 -22.587  24.684  1.00 61.71     0.067 A 
HETATM    9  C6  52M A 301      17.822 -22.414  25.732  1.00 63.37     0.198 A 
HETATM   10  C7  52M A 301      19.141 -22.053  25.459  1.00 64.96     0.042 A 
HETATM   11  C8  52M A 301      19.556 -21.866  24.141  1.00 63.08     0.005 A 
HETATM   12  C9  52M A 301      18.649 -22.030  23.072  1.00 69.86     0.023 A 
HETATM   13  C10 52M A 301      19.056 -21.842  21.735  1.00 71.07     0.004 A 
HETATM   14  C11 52M A 301      18.118 -22.027  20.696  1.00 71.68     0.023 A 
HETATM   15  C12 52M A 301      18.512 -21.842  19.353  1.00 67.71     0.004 A 
HETATM   16  C13 52M A 301      17.589 -22.021  18.319  1.00 64.14     0.028 A 
ENDROOT
BRANCH  13  17
HETATM   17  C14 52M A 301      20.320 -21.161  21.616  1.00 64.87     0.006 A 
HETATM   18  C15 52M A 301      21.490 -21.895  21.403  1.00 63.47     0.002 A 
HETATM   19  C16 52M A 301      22.722 -21.241  21.287  1.00 62.69     0.019 A 
HETATM   20  C17 52M A 301      22.800 -19.853  21.400  1.00 61.54     0.085 A 
HETATM   21  C18 52M A 301      21.631 -19.119  21.629  1.00 60.17     0.025 A 
HETATM   22  C19 52M A 301      20.394 -19.761  21.740  1.00 65.42     0.066 A 
BRANCH  20  23
HETATM   23  N1  52M A 301      24.122 -19.223  21.274  1.00 62.73    -0.211 NA
HETATM   24  C21 52M A 301      24.521 -18.328  20.197  1.00 74.16     0.270 C 
HETATM   25  S1  52M A 301      26.067 -17.704  20.196  1.00108.58    -0.028 SA
HETATM   26  O6  52M A 301      23.621 -17.948  19.118  1.00 71.64    -0.157 OA
ENDBRANCH  20  23
BRANCH  22  27
HETATM   27  C20 52M A 301      19.122 -18.926  21.990  1.00 72.40     0.211 C 
HETATM   28  O4  52M A 301      18.374 -18.575  21.025  1.00 74.98    -0.644 OA
HETATM   29  O5  52M A 301      18.816 -18.577  23.168  1.00 74.14    -0.644 OA
ENDBRANCH  22  27
ENDBRANCH  13  17
TORSDOF 3
