REMARK VINA RESULT:      -7.4      5.729      8.469
REMARK  3 active torsions:
REMARK  status: ('A' for Active; 'I' for Inactive)
REMARK    1  A    between atoms: N1_2  and  C17_25 
REMARK       I    between atoms: N1_2  and  C21_29 
REMARK    2  A    between atoms: C10_18  and  C14_22 
REMARK    3  A    between atoms: C19_27  and  C20_28 
ROOT
HETATM    1  C1  52M A 301      33.610 -14.991   7.766  1.00 69.40     0.133 A 
HETATM    2  O1  52M A 301      34.334 -14.277   6.781  1.00 68.97    -0.190 OA
HETATM    3  C2  52M A 301      32.586 -14.325   8.437  1.00 66.06     0.052 A 
HETATM    4  O2  52M A 301      30.811 -14.326  10.098  1.00 64.90    -0.307 OA
HETATM    5  C3  52M A 301      31.836 -14.996   9.427  1.00 66.27     0.102 A 
HETATM    6  O3  52M A 301      27.387 -14.339  13.304  1.00 67.50    -0.286 OA
HETATM    7  C4  52M A 301      30.062 -14.988  11.081  1.00 68.03     0.103 A 
HETATM    8  C5  52M A 301      29.032 -14.295  11.746  1.00 61.71     0.067 A 
HETATM    9  C6  52M A 301      28.278 -14.937  12.726  1.00 63.37     0.198 A 
HETATM   10  C7  52M A 301      28.545 -16.268  13.045  1.00 64.96     0.042 A 
HETATM   11  C8  52M A 301      29.563 -16.955  12.384  1.00 63.08     0.005 A 
HETATM   12  C9  52M A 301      30.338 -16.312  11.396  1.00 69.86     0.023 A 
HETATM   13  C10 52M A 301      31.371 -16.995  10.721  1.00 71.07     0.004 A 
HETATM   14  C11 52M A 301      32.115 -16.316   9.731  1.00 71.68     0.023 A 
HETATM   15  C12 52M A 301      33.153 -16.988   9.049  1.00 67.71     0.004 A 
HETATM   16  C13 52M A 301      33.895 -16.323   8.069  1.00 64.14     0.028 A 
ENDROOT
BRANCH  13  17
HETATM   17  C14 52M A 301      31.754 -18.226  11.365  1.00 64.87     0.006 A 
HETATM   18  C15 52M A 301      31.172 -19.432  10.966  1.00 63.47     0.002 A 
HETATM   19  C16 52M A 301      31.538 -20.632  11.587  1.00 62.69     0.019 A 
HETATM   20  C17 52M A 301      32.472 -20.637  12.621  1.00 61.54     0.085 A 
HETATM   21  C18 52M A 301      33.044 -19.427  13.033  1.00 60.17     0.025 A 
HETATM   22  C19 52M A 301      32.691 -18.223  12.415  1.00 65.42     0.066 A 
BRANCH  20  23
HETATM   23  N1  52M A 301      32.813 -21.926  13.238  1.00 62.73    -0.211 NA
HETATM   24  C21 52M A 301      32.163 -22.488  14.414  1.00 74.16     0.270 C 
HETATM   25  S1  52M A 301      32.678 -23.963  14.996  1.00108.58    -0.028 SA
HETATM   26  O6  52M A 301      31.073 -21.815  15.104  1.00 71.64    -0.157 OA
ENDBRANCH  20  23
BRANCH  22  27
HETATM   27  C20 52M A 301      33.339 -16.907  12.887  1.00 72.40     0.211 C 
HETATM   28  O4  52M A 301      32.783 -16.190  13.776  1.00 74.98    -0.644 OA
HETATM   29  O5  52M A 301      34.438 -16.526  12.385  1.00 74.14    -0.644 OA
ENDBRANCH  22  27
ENDBRANCH  13  17
TORSDOF 3
