REMARK VINA RESULT:      -5.2      0.000      0.000
REMARK  13 active torsions:
REMARK  status: ('A' for Active; 'I' for Inactive)
REMARK    1  A    between atoms: O_1  and  C_19 
REMARK    2  A    between atoms: O_2  and  C_23 
REMARK    3  A    between atoms: O_3  and  C_27 
REMARK    4  A    between atoms: O_4  and  C_30 
REMARK    5  A    between atoms: N_5  and  C_12 
REMARK    6  A    between atoms: N_5  and  C_18 
REMARK    7  A    between atoms: C_7  and  C_8 
REMARK    8  A    between atoms: C_7  and  C_9 
REMARK    9  A    between atoms: C_7  and  C_11 
REMARK   10  A    between atoms: C_9  and  C_10 
REMARK   11  A    between atoms: C_10  and  C_12 
REMARK   12  A    between atoms: C_18  and  C_22 
REMARK   13  A    between atoms: C_22  and  C_24 
ROOT
HETATM    1  N   UNK     0      -4.315  31.166  23.490  0.00  0.00    -0.196 NA
HETATM    2  C   UNK     0      -2.573  29.484  22.410  0.00  0.00     0.079 C 
HETATM    3  C   UNK     0      -3.546  30.433  23.024  0.00  0.00     0.074 C 
ENDROOT
BRANCH   2   4
HETATM    4  C   UNK     0      -2.990  28.006  22.816  0.00  0.00     0.004 C 
HETATM    5  C   UNK     0      -4.416  27.613  22.393  0.00  0.00     0.011 C 
HETATM    6  C   UNK     0      -2.835  27.724  24.323  0.00  0.00     0.011 C 
ENDBRANCH   2   4
BRANCH   2   7
HETATM    7  C   UNK     0      -2.681  29.662  20.853  0.00  0.00     0.032 C 
BRANCH   7   8
HETATM    8  C   UNK     0      -3.242  31.022  20.386  0.00  0.00     0.032 C 
BRANCH   8   9
HETATM    9  C   UNK     0      -2.954  31.306  18.909  0.00  0.00     0.272 C 
BRANCH   9  10
HETATM   10  N   UNK     0      -1.534  31.525  18.663  0.00  0.00     0.084 N 
HETATM   11  C   UNK     0      -1.258  31.552  17.225  0.00  0.00     0.309 C 
BRANCH  10  12
HETATM   12  C   UNK     0      -1.089  32.772  19.288  0.00  0.00     0.276 C 
BRANCH  12  13
HETATM   13  C   UNK     0       0.042  32.512  20.284  0.00  0.00     0.068 C 
BRANCH  13  14
HETATM   14  C   UNK     0      -0.220  33.186  21.608  0.00  0.00    -0.054 A 
HETATM   15  C   UNK     0       0.849  33.561  22.421  0.00  0.00     0.046 A 
HETATM   16  C   UNK     0       0.607  34.187  23.646  0.00  0.00     0.102 A 
HETATM   17  C   UNK     0      -0.703  34.435  24.055  0.00  0.00     0.101 A 
HETATM   18  C   UNK     0      -1.771  34.059  23.241  0.00  0.00     0.040 A 
HETATM   19  C   UNK     0      -1.530  33.435  22.017  0.00  0.00     0.010 A 
BRANCH  16  20
HETATM   20  O   UNK     0       1.658  34.549  24.433  0.00  0.00    -0.353 OA
HETATM   21  C   UNK     0       2.967  34.334  23.906  0.00  0.00     0.210 C 
ENDBRANCH  16  20
BRANCH  17  22
HETATM   22  O   UNK     0      -0.953  35.044  25.248  0.00  0.00    -0.353 OA
HETATM   23  C   UNK     0      -1.215  34.198  26.365  0.00  0.00     0.210 C 
ENDBRANCH  17  22
ENDBRANCH  13  14
ENDBRANCH  12  13
ENDBRANCH  10  12
ENDBRANCH   9  10
ENDBRANCH   8   9
ENDBRANCH   7   8
ENDBRANCH   2   7
BRANCH   2  24
HETATM   24  C   UNK     0      -1.114  29.736  22.860  0.00  0.00    -0.032 A 
HETATM   25  C   UNK     0      -0.860  30.405  24.058  0.00  0.00     0.048 A 
HETATM   26  C   UNK     0       0.455  30.632  24.464  0.00  0.00     0.102 A 
HETATM   27  C   UNK     0       1.516  30.192  23.673  0.00  0.00     0.101 A 
HETATM   28  C   UNK     0       1.261  29.523  22.475  0.00  0.00     0.040 A 
HETATM   29  C   UNK     0      -0.054  29.295  22.068  0.00  0.00     0.012 A 
BRANCH  26  30
HETATM   30  O   UNK     0       0.690  31.286  25.635  0.00  0.00    -0.353 OA
HETATM   31  C   UNK     0       0.607  30.518  26.835  0.00  0.00     0.210 C 
ENDBRANCH  26  30
BRANCH  27  32
HETATM   32  O   UNK     0       2.804  30.407  24.058  0.00  0.00    -0.353 OA
HETATM   33  C   UNK     0       3.685  29.287  24.030  0.00  0.00     0.210 C 
ENDBRANCH  27  32
ENDBRANCH   2  24
TORSDOF 13
