REMARK VINA RESULT:      -8.0      2.735      3.235
REMARK  3 active torsions:
REMARK  status: ('A' for Active; 'I' for Inactive)
REMARK    1  A    between atoms: N1_2  and  C17_25 
REMARK       I    between atoms: N1_2  and  C21_29 
REMARK    2  A    between atoms: C10_18  and  C14_22 
REMARK    3  A    between atoms: C19_27  and  C20_28 
ROOT
HETATM    1  C1  52M A 301      30.927 -28.015  11.153  1.00 69.40     0.133 A 
HETATM    2  O1  52M A 301      31.360 -29.278  11.623  1.00 68.97    -0.190 OA
HETATM    3  C2  52M A 301      29.728 -27.957  10.445  1.00 66.06     0.052 A 
HETATM    4  O2  52M A 301      28.053 -26.664   9.247  1.00 64.90    -0.307 OA
HETATM    5  C3  52M A 301      29.256 -26.719   9.956  1.00 66.27     0.102 A 
HETATM    6  O3  52M A 301      24.828 -24.160   6.938  1.00 67.50    -0.286 OA
HETATM    7  C4  52M A 301      27.579 -25.438   8.760  1.00 68.03     0.103 A 
HETATM    8  C5  52M A 301      26.364 -25.403   8.047  1.00 61.71     0.067 A 
HETATM    9  C6  52M A 301      25.878 -24.193   7.556  1.00 63.37     0.198 A 
HETATM   10  C7  52M A 301      26.596 -23.018   7.772  1.00 64.96     0.042 A 
HETATM   11  C8  52M A 301      27.797 -23.053   8.480  1.00 63.08     0.005 A 
HETATM   12  C9  52M A 301      28.303 -24.273   8.975  1.00 69.86     0.023 A 
HETATM   13  C10 52M A 301      29.517 -24.322   9.692  1.00 71.07     0.004 A 
HETATM   14  C11 52M A 301      29.981 -25.564  10.179  1.00 71.68     0.023 A 
HETATM   15  C12 52M A 301      31.195 -25.626  10.896  1.00 67.71     0.004 A 
HETATM   16  C13 52M A 301      31.662 -26.852  11.381  1.00 64.14     0.028 A 
ENDROOT
BRANCH  13  17
HETATM   17  C14 52M A 301      30.306 -23.123   9.557  1.00 64.87     0.006 A 
HETATM   18  C15 52M A 301      31.111 -22.941   8.431  1.00 63.47     0.002 A 
HETATM   19  C16 52M A 301      31.880 -21.780   8.293  1.00 62.69     0.019 A 
HETATM   20  C17 52M A 301      31.866 -20.800   9.285  1.00 61.54     0.085 A 
HETATM   21  C18 52M A 301      31.072 -20.989  10.422  1.00 60.17     0.025 A 
HETATM   22  C19 52M A 301      30.294 -22.142  10.567  1.00 65.42     0.066 A 
BRANCH  20  23
HETATM   23  N1  52M A 301      32.697 -19.604   9.088  1.00 62.73    -0.211 NA
HETATM   24  C21 52M A 301      32.379 -18.273   9.586  1.00 74.16     0.270 C 
HETATM   25  S1  52M A 301      33.428 -17.018   9.265  1.00108.58    -0.028 SA
HETATM   26  O6  52M A 301      31.181 -17.992  10.362  1.00 71.64    -0.157 OA
ENDBRANCH  20  23
BRANCH  22  27
HETATM   27  C20 52M A 301      29.427 -22.322  11.829  1.00 72.40     0.211 C 
HETATM   28  O4  52M A 301      28.219 -21.929  11.850  1.00 74.98    -0.644 OA
HETATM   29  O5  52M A 301      29.919 -22.863  12.863  1.00 74.14    -0.644 OA
ENDBRANCH  22  27
ENDBRANCH  13  17
TORSDOF 3
