REMARK VINA RESULT:      -8.3      0.000      0.000
REMARK  3 active torsions:
REMARK  status: ('A' for Active; 'I' for Inactive)
REMARK    1  A    between atoms: N1_2  and  C17_25 
REMARK       I    between atoms: N1_2  and  C21_29 
REMARK    2  A    between atoms: C10_18  and  C14_22 
REMARK    3  A    between atoms: C19_27  and  C20_28 
ROOT
HETATM    1  C1  52M A 301      30.296 -26.542  10.203  1.00 69.40     0.133 A 
HETATM    2  O1  52M A 301      30.970 -27.762   9.955  1.00 68.97    -0.190 OA
HETATM    3  C2  52M A 301      28.948 -26.457   9.857  1.00 66.06     0.052 A 
HETATM    4  O2  52M A 301      26.884 -25.178   9.737  1.00 64.90    -0.307 OA
HETATM    5  C3  52M A 301      28.234 -25.260  10.085  1.00 66.27     0.102 A 
HETATM    6  O3  52M A 301      22.906 -22.703   9.511  1.00 67.50    -0.286 OA
HETATM    7  C4  52M A 301      26.170 -23.993   9.962  1.00 68.03     0.103 A 
HETATM    8  C5  52M A 301      24.809 -23.930   9.604  1.00 61.71     0.067 A 
HETATM    9  C6  52M A 301      24.084 -22.760   9.821  1.00 63.37     0.198 A 
HETATM   10  C7  52M A 301      24.708 -21.653  10.393  1.00 64.96     0.042 A 
HETATM   11  C8  52M A 301      26.055 -21.717  10.750  1.00 63.08     0.005 A 
HETATM   12  C9  52M A 301      26.801 -22.894  10.528  1.00 69.86     0.023 A 
HETATM   13  C10 52M A 301      28.164 -22.971  10.883  1.00 71.07     0.004 A 
HETATM   14  C11 52M A 301      28.870 -24.172  10.653  1.00 71.68     0.023 A 
HETATM   15  C12 52M A 301      30.235 -24.261  11.003  1.00 67.71     0.004 A 
HETATM   16  C13 52M A 301      30.941 -25.446  10.777  1.00 64.14     0.028 A 
ENDROOT
BRANCH  13  17
HETATM   17  C14 52M A 301      28.757 -21.684  11.147  1.00 64.87     0.006 A 
HETATM   18  C15 52M A 301      28.888 -21.233  12.462  1.00 63.47     0.002 A 
HETATM   19  C16 52M A 301      29.461 -19.984  12.727  1.00 62.69     0.019 A 
HETATM   20  C17 52M A 301      29.892 -19.167  11.682  1.00 61.54     0.085 A 
HETATM   21  C18 52M A 301      29.745 -19.611  10.362  1.00 60.17     0.025 A 
HETATM   22  C19 52M A 301      29.180 -20.860  10.087  1.00 65.42     0.066 A 
BRANCH  20  23
HETATM   23  N1  52M A 301      30.482 -17.865  12.020  1.00 62.73    -0.211 NA
HETATM   24  C21 52M A 301      29.774 -16.772  12.674  1.00 74.16     0.270 C 
HETATM   25  S1  52M A 301      30.589 -15.350  12.980  1.00108.58    -0.028 SA
HETATM   26  O6  52M A 301      28.380 -16.871  13.079  1.00 71.64    -0.157 OA
ENDBRANCH  20  23
BRANCH  22  27
HETATM   27  C20 52M A 301      29.034 -21.323   8.624  1.00 72.40     0.211 C 
HETATM   28  O4  52M A 301      28.048 -20.948   7.918  1.00 74.98    -0.644 OA
HETATM   29  O5  52M A 301      29.902 -22.092   8.113  1.00 74.14    -0.644 OA
ENDBRANCH  22  27
ENDBRANCH  13  17
TORSDOF 3
