REMARK VINA RESULT:      -7.8     13.716     15.654
REMARK  3 active torsions:
REMARK  status: ('A' for Active; 'I' for Inactive)
REMARK    1  A    between atoms: N1_2  and  C17_25 
REMARK       I    between atoms: N1_2  and  C21_29 
REMARK    2  A    between atoms: C10_18  and  C14_22 
REMARK    3  A    between atoms: C19_27  and  C20_28 
ROOT
HETATM    1  C1  52M A 301      24.303 -18.492  22.207  1.00 69.40     0.133 A 
HETATM    2  O1  52M A 301      25.650 -18.059  22.269  1.00 68.97    -0.190 OA
HETATM    3  C2  52M A 301      23.701 -18.575  20.953  1.00 66.06     0.052 A 
HETATM    4  O2  52M A 301      21.757 -19.085  19.583  1.00 64.90    -0.307 OA
HETATM    5  C3  52M A 301      22.359 -19.002  20.841  1.00 66.27     0.102 A 
HETATM    6  O3  52M A 301      18.003 -20.072  16.950  1.00 67.50    -0.286 OA
HETATM    7  C4  52M A 301      20.427 -19.509  19.466  1.00 68.03     0.103 A 
HETATM    8  C5  52M A 301      19.838 -19.587  18.188  1.00 61.71     0.067 A 
HETATM    9  C6  52M A 301      18.515 -20.005  18.054  1.00 63.37     0.198 A 
HETATM   10  C7  52M A 301      17.778 -20.349  19.186  1.00 64.96     0.042 A 
HETATM   11  C8  52M A 301      18.362 -20.274  20.450  1.00 63.08     0.005 A 
HETATM   12  C9  52M A 301      19.697 -19.844  20.599  1.00 69.86     0.023 A 
HETATM   13  C10 52M A 301      20.300 -19.763  21.872  1.00 71.07     0.004 A 
HETATM   14  C11 52M A 301      21.643 -19.338  21.975  1.00 71.68     0.023 A 
HETATM   15  C12 52M A 301      22.256 -19.252  23.243  1.00 67.71     0.004 A 
HETATM   16  C13 52M A 301      23.584 -18.830  23.353  1.00 64.14     0.028 A 
ENDROOT
BRANCH  13  17
HETATM   17  C14 52M A 301      19.350 -19.821  22.955  1.00 64.87     0.006 A 
HETATM   18  C15 52M A 301      18.651 -18.673  23.332  1.00 63.47     0.002 A 
HETATM   19  C16 52M A 301      17.728 -18.721  24.383  1.00 62.69     0.019 A 
HETATM   20  C17 52M A 301      17.508 -19.909  25.077  1.00 61.54     0.085 A 
HETATM   21  C18 52M A 301      18.220 -21.057  24.712  1.00 60.17     0.025 A 
HETATM   22  C19 52M A 301      19.140 -21.022  23.658  1.00 65.42     0.066 A 
BRANCH  20  23
HETATM   23  N1  52M A 301      16.530 -19.898  26.174  1.00 62.73    -0.211 NA
HETATM   24  C21 52M A 301      16.857 -19.728  27.583  1.00 74.16     0.270 C 
HETATM   25  S1  52M A 301      15.626 -19.749  28.707  1.00108.58    -0.028 SA
HETATM   26  O6  52M A 301      18.220 -19.534  28.054  1.00 71.64    -0.157 OA
ENDBRANCH  20  23
BRANCH  22  27
HETATM   27  C20 52M A 301      19.908 -22.303  23.276  1.00 72.40     0.211 C 
HETATM   28  O4  52M A 301      21.031 -22.571  23.806  1.00 74.98    -0.644 OA
HETATM   29  O5  52M A 301      19.423 -23.101  22.420  1.00 74.14    -0.644 OA
ENDBRANCH  22  27
ENDBRANCH  13  17
TORSDOF 3
