REMARK  8 active torsions:
REMARK  status: ('A' for Active; 'I' for Inactive)
REMARK       I    between atoms: N1_3  and  C1_4 
REMARK    1  A    between atoms: C1_4  and  C2_5 
REMARK    2  A    between atoms: C2_5  and  C3_6 
REMARK    3  A    between atoms: C3_6  and  C4_7 
REMARK    4  A    between atoms: C4_7  and  C5_8 
REMARK    5  A    between atoms: C5_8  and  C6_9 
REMARK    6  A    between atoms: C6_9  and  C7_10 
REMARK    7  A    between atoms: C7_10  and  C8_11 
REMARK       I    between atoms: C8_11  and  N2_13 
REMARK    8  A    between atoms: N2_13  and  C9_14 
ROOT
HETATM    1  C7  SHH A 379      29.148  -4.095 -14.538  1.00 72.73     0.103 C 
ENDROOT
BRANCH   1   2
HETATM    2  C6  SHH A 379      29.448  -5.172 -13.505  1.00 72.54     0.009 C 
BRANCH   2   3
HETATM    3  C5  SHH A 379      29.016  -4.724 -12.115  1.00 72.63     0.000 C 
BRANCH   3   4
HETATM    4  C4  SHH A 379      30.186  -4.583 -11.148  1.00 72.15     0.000 C 
BRANCH   4   5
HETATM    5  C3  SHH A 379      30.229  -3.156 -10.617  1.00 72.15     0.009 C 
BRANCH   5   6
HETATM    6  C2  SHH A 379      30.526  -3.079  -9.124  1.00 71.82     0.105 C 
BRANCH   6   7
HETATM    7  C1  SHH A 379      29.499  -2.209  -8.423  1.00 71.70     0.243 C 
HETATM    8  O2  SHH A 379      28.907  -1.285  -8.966  1.00 70.89    -0.271 OA
HETATM    9  N1  SHH A 379      29.262  -2.508  -7.160  1.00 71.79    -0.201 N 
HETATM   10  O1  SHH A 379      28.117  -2.383  -6.717  1.00 71.87    -0.086 OA
HETATM   11  HN1 SHH A 379      30.013  -2.835  -6.569  1.00  0.00     0.200 HD
ENDBRANCH   6   7
ENDBRANCH   5   6
ENDBRANCH   4   5
ENDBRANCH   3   4
ENDBRANCH   2   3
ENDBRANCH   1   2
BRANCH   1  12
HETATM   12  C8  SHH A 379      30.086  -4.253 -15.711  1.00 74.00     0.222 C 
HETATM   13  O3  SHH A 379      31.107  -4.924 -15.622  1.00 74.06    -0.273 OA
HETATM   14  N2  SHH A 379      29.683  -3.643 -16.831  1.00 74.85    -0.327 N 
HETATM   15  HN2 SHH A 379      28.699  -3.597 -17.055  1.00  0.00     0.169 HD
BRANCH  14  16
HETATM   16  C9  SHH A 379      30.466  -3.043 -17.761  1.00 74.37     0.034 A 
HETATM   17  C10 SHH A 379      29.957  -1.904 -18.404  1.00 74.01     0.029 A 
HETATM   18  C11 SHH A 379      30.712  -1.244 -19.373  1.00 73.75     0.002 A 
HETATM   19  C12 SHH A 379      31.977  -1.731 -19.703  1.00 74.63     0.000 A 
HETATM   20  C13 SHH A 379      32.483  -2.878 -19.069  1.00 74.80     0.002 A 
HETATM   21  C14 SHH A 379      31.729  -3.542 -18.101  1.00 73.59     0.029 A 
ENDBRANCH  14  16
ENDBRANCH   1  12
TORSDOF 8
