REMARK VINA RESULT:      -6.8      0.000      0.000
REMARK  8 active torsions:
REMARK  status: ('A' for Active; 'I' for Inactive)
REMARK       I    between atoms: N1_3  and  C1_4 
REMARK    1  A    between atoms: C1_4  and  C2_5 
REMARK    2  A    between atoms: C2_5  and  C3_6 
REMARK    3  A    between atoms: C3_6  and  C4_7 
REMARK    4  A    between atoms: C4_7  and  C5_8 
REMARK    5  A    between atoms: C5_8  and  C6_9 
REMARK    6  A    between atoms: C6_9  and  C7_10 
REMARK    7  A    between atoms: C7_10  and  C8_11 
REMARK       I    between atoms: C8_11  and  N2_13 
REMARK    8  A    between atoms: N2_13  and  C9_14 
ROOT
HETATM    1  C7  SHH A 379      30.149  -2.705  -8.006  1.00 72.73     0.103 C 
ENDROOT
BRANCH   1   2
HETATM    2  C6  SHH A 379      30.616  -2.940  -9.436  1.00 72.54     0.009 C 
BRANCH   2   3
HETATM    3  C5  SHH A 379      29.848  -4.090 -10.074  1.00 72.63     0.000 C 
BRANCH   3   4
HETATM    4  C4  SHH A 379      30.482  -4.578 -11.372  1.00 72.15     0.000 C 
BRANCH   4   5
HETATM    5  C3  SHH A 379      29.394  -4.778 -12.418  1.00 72.15     0.009 C 
BRANCH   5   6
HETATM    6  C2  SHH A 379      29.860  -5.586 -13.623  1.00 71.82     0.105 C 
BRANCH   6   7
HETATM    7  C1  SHH A 379      30.105  -4.675 -14.811  1.00 71.70     0.243 C 
HETATM    8  O2  SHH A 379      29.633  -3.550 -14.913  1.00 70.89    -0.271 OA
HETATM    9  N1  SHH A 379      30.881  -5.165 -15.759  1.00 71.79    -0.201 N 
HETATM   10  O1  SHH A 379      31.646  -4.407 -16.362  1.00 71.87    -0.086 OA
HETATM   11  HN1 SHH A 379      30.845  -6.149 -15.982  1.00  0.00     0.200 HD
ENDBRANCH   6   7
ENDBRANCH   5   6
ENDBRANCH   4   5
ENDBRANCH   3   4
ENDBRANCH   2   3
ENDBRANCH   1   2
BRANCH   1  12
HETATM   12  C8  SHH A 379      31.242  -2.006  -7.233  1.00 74.00     0.222 C 
HETATM   13  O3  SHH A 379      30.991  -1.357  -6.224  1.00 74.06    -0.273 OA
HETATM   14  N2  SHH A 379      32.474  -2.194  -7.718  1.00 74.85    -0.327 N 
HETATM   15  HN2 SHH A 379      32.724  -3.081  -8.132  1.00  0.00     0.169 HD
BRANCH  14  16
HETATM   16  C9  SHH A 379      33.493  -1.299  -7.728  1.00 74.37     0.034 A 
HETATM   17  C10 SHH A 379      34.802  -1.803  -7.677  1.00 74.01     0.029 A 
HETATM   18  C11 SHH A 379      35.892  -0.934  -7.681  1.00 73.75     0.002 A 
HETATM   19  C12 SHH A 379      35.670   0.443  -7.728  1.00 74.63     0.000 A 
HETATM   20  C13 SHH A 379      34.360   0.948  -7.767  1.00 74.80     0.002 A 
HETATM   21  C14 SHH A 379      33.267   0.082  -7.761  1.00 73.59     0.029 A 
ENDBRANCH  14  16
ENDBRANCH   1  12
TORSDOF 8
