REMARK VINA RESULT:      -6.1      5.519      7.701
REMARK  8 active torsions:
REMARK  status: ('A' for Active; 'I' for Inactive)
REMARK       I    between atoms: N1_3  and  C1_4 
REMARK    1  A    between atoms: C1_4  and  C2_5 
REMARK    2  A    between atoms: C2_5  and  C3_6 
REMARK    3  A    between atoms: C3_6  and  C4_7 
REMARK    4  A    between atoms: C4_7  and  C5_8 
REMARK    5  A    between atoms: C5_8  and  C6_9 
REMARK    6  A    between atoms: C6_9  and  C7_10 
REMARK    7  A    between atoms: C7_10  and  C8_11 
REMARK       I    between atoms: C8_11  and  N2_13 
REMARK    8  A    between atoms: N2_13  and  C9_14 
ROOT
HETATM    1  C7  SHH A 379      29.747  -7.534 -16.771  1.00 72.73     0.103 C 
ENDROOT
BRANCH   1   2
HETATM    2  C6  SHH A 379      29.554  -6.442 -17.814  1.00 72.54     0.009 C 
BRANCH   2   3
HETATM    3  C5  SHH A 379      30.697  -5.437 -17.763  1.00 72.63     0.000 C 
BRANCH   3   4
HETATM    4  C4  SHH A 379      30.221  -4.012 -17.507  1.00 72.15     0.000 C 
BRANCH   4   5
HETATM    5  C3  SHH A 379      31.302  -3.250 -16.751  1.00 72.15     0.009 C 
BRANCH   5   6
HETATM    6  C2  SHH A 379      32.714  -3.610 -17.196  1.00 71.82     0.105 C 
BRANCH   6   7
HETATM    7  C1  SHH A 379      33.539  -2.354 -17.408  1.00 71.70     0.243 C 
HETATM    8  O2  SHH A 379      33.652  -1.466 -16.573  1.00 70.89    -0.271 OA
HETATM    9  N1  SHH A 379      34.154  -2.263 -18.572  1.00 71.79    -0.201 N 
HETATM   10  O1  SHH A 379      35.268  -1.733 -18.624  1.00 71.87    -0.086 OA
HETATM   11  HN1 SHH A 379      33.714  -2.625 -19.406  1.00  0.00     0.200 HD
ENDBRANCH   6   7
ENDBRANCH   5   6
ENDBRANCH   4   5
ENDBRANCH   3   4
ENDBRANCH   2   3
ENDBRANCH   1   2
BRANCH   1  12
HETATM   12  C8  SHH A 379      29.181  -7.068 -15.450  1.00 74.00     0.222 C 
HETATM   13  O3  SHH A 379      27.982  -7.140 -15.212  1.00 74.06    -0.273 OA
HETATM   14  N2  SHH A 379      30.094  -6.623 -14.580  1.00 74.85    -0.327 N 
HETATM   15  HN2 SHH A 379      31.008  -7.054 -14.543  1.00  0.00     0.169 HD
BRANCH  14  16
HETATM   16  C9  SHH A 379      29.949  -5.612 -13.689  1.00 74.37     0.034 A 
HETATM   17  C10 SHH A 379      30.524  -5.776 -12.419  1.00 74.01     0.029 A 
HETATM   18  C11 SHH A 379      30.406  -4.774 -11.456  1.00 73.75     0.002 A 
HETATM   19  C12 SHH A 379      29.704  -3.609 -11.765  1.00 74.63     0.000 A 
HETATM   20  C13 SHH A 379      29.117  -3.448 -13.031  1.00 74.80     0.002 A 
HETATM   21  C14 SHH A 379      29.231  -4.450 -13.996  1.00 73.59     0.029 A 
ENDBRANCH  14  16
ENDBRANCH   1  12
TORSDOF 8
