MODEL 1
REMARK VINA RESULT:      -8.2      0.000      0.000
REMARK  7 active torsions:
REMARK  status: ('A' for Active; 'I' for Inactive)
REMARK    1  A    between atoms: CAA_1  and  CBA_6 
REMARK    2  A    between atoms: CAA_1  and  C2A_28 
REMARK    3  A    between atoms: CAB_2  and  C3B_35 
REMARK    4  A    between atoms: CAD_4  and  CBD_9 
REMARK    5  A    between atoms: CAD_4  and  C3D_37 
REMARK    6  A    between atoms: CBA_6  and  CGA_11 
REMARK    7  A    between atoms: CBD_9  and  CGD_12 
ROOT
HETATM    1  CAC HEM A 148     -25.241 -11.075  23.457  1.00 17.51    -0.025 C 
HETATM    2  NA  HEM A 148     -28.786  -6.000  19.214  1.00 13.88    -0.246 N 
HETATM    3  CBC HEM A 148     -25.720 -12.407  23.119  1.00 22.56     0.031 C 
HETATM    4  NB  HEM A 148     -27.297  -5.364  21.456  1.00 13.06    -0.246 N 
HETATM    5  ND  HEM A 148     -28.157  -8.683  19.536  1.00 11.97    -0.246 N 
HETATM    6  CHA HEM A 148     -29.623  -7.805  17.814  1.00 12.79     0.038 C 
HETATM    7  CHB HEM A 148     -28.443  -3.735  20.066  1.00 14.03     0.038 C 
HETATM    8  CHC HEM A 148     -26.233  -6.312  23.435  1.00 14.68     0.038 A 
HETATM    9  CHD HEM A 148     -26.980 -10.308  20.909  1.00 11.42     0.038 C 
HETATM   10  CMA HEM A 148     -30.574  -2.889  18.015  1.00 16.75     0.032 C 
HETATM   11  CMB HEM A 148     -27.246  -1.593  21.959  1.00 11.97     0.033 C 
HETATM   12  CMC HEM A 148     -25.143  -8.647  25.259  1.00 15.35     0.033 C 
HETATM   13  CMD HEM A 148     -28.083 -12.428  18.921  1.00 12.06     0.032 C 
HETATM   14  C1A HEM A 148     -29.582  -6.482  18.199  1.00 13.87     0.079 A 
HETATM   15  C1B HEM A 148     -27.613  -4.067  21.112  1.00 14.21     0.079 A 
HETATM   16  C1C HEM A 148     -26.300  -7.641  23.072  1.00 12.26     0.079 A 
HETATM   17  C1D HEM A 148     -27.757  -9.966  19.833  1.00 11.83     0.079 A 
HETATM   18  C2A HEM A 148     -30.416  -5.434  17.638  1.00 18.04    -0.006 A 
HETATM   19  C2B HEM A 148     -27.107  -3.113  22.073  1.00 14.05    -0.003 A 
HETATM   20  C2C HEM A 148     -25.738  -8.728  23.852  1.00 15.15    -0.003 A 
HETATM   21  C2D HEM A 148     -28.307 -10.922  18.913  1.00 12.69    -0.007 A 
HETATM   22  C3A HEM A 148     -30.043  -4.292  18.262  1.00 15.63    -0.007 A 
HETATM   23  C3B HEM A 148     -26.495  -3.843  23.054  1.00 15.80     0.011 A 
HETATM   24  C3C HEM A 148     -25.836  -9.855  23.108  1.00 14.87     0.011 A 
HETATM   25  C3D HEM A 148     -29.058 -10.219  18.045  1.00 11.87    -0.006 A 
HETATM   26  C4A HEM A 148     -29.039  -4.643  19.220  1.00 15.24     0.079 A 
HETATM   27  C4B HEM A 148     -26.654  -5.238  22.670  1.00 14.44     0.082 A 
HETATM   28  C4C HEM A 148     -26.532  -9.447  21.882  1.00 12.44     0.082 A 
HETATM   29  C4D HEM A 148     -28.961  -8.838  18.437  1.00 11.45     0.079 A 
HETATM   30  NC  HEM A 148     -26.794  -8.086  21.867  1.00 12.45    -0.246 N 
HETATM   31 FE   HEM A 148     -27.579  -7.002  20.385  1.00 11.27     0.000 Fe
ENDROOT
BRANCH  18  32
HETATM   32  CAA HEM A 148     -31.565  -5.591  16.640  1.00 19.59     0.039 C 
BRANCH  32  33
HETATM   33  CBA HEM A 148     -32.910  -5.746  17.324  1.00 31.97     0.102 C 
BRANCH  33  34
HETATM   34  CGA HEM A 148     -33.319  -7.157  17.744  1.00 38.78     0.186 C 
HETATM   35  O1A HEM A 148     -33.959  -7.317  18.787  1.00 41.39    -0.647 OA
HETATM   36  O2A HEM A 148     -33.016  -8.095  17.002  1.00 42.18    -0.647 OA
ENDBRANCH  33  34
ENDBRANCH  32  33
ENDBRANCH  18  32
BRANCH  25  37
HETATM   37  CAD HEM A 148     -29.873 -10.790  16.897  1.00 12.86     0.039 C 
BRANCH  37  38
HETATM   38  CBD HEM A 148     -29.225 -10.610  15.522  1.00 15.48     0.102 C 
BRANCH  38  39
HETATM   39  CGD HEM A 148     -30.148 -10.035  14.465  1.00 16.81     0.186 C 
HETATM   40  O1D HEM A 148     -30.727  -8.982  14.693  1.00 19.28    -0.647 OA
HETATM   41  O2D HEM A 148     -30.311 -10.657  13.420  1.00 20.24    -0.647 OA
ENDBRANCH  38  39
ENDBRANCH  37  38
ENDBRANCH  25  37
BRANCH  23  42
HETATM   42  CAB HEM A 148     -25.778  -3.386  24.161  1.00 15.24    -0.025 C 
HETATM   43  CBB HEM A 148     -26.378  -2.994  25.425  1.00 15.41     0.031 C 
ENDBRANCH  23  42
TORSDOF 7
ENDMDL
MODEL 2
REMARK VINA RESULT:      -8.0      1.815      2.641
REMARK  7 active torsions:
REMARK  status: ('A' for Active; 'I' for Inactive)
REMARK    1  A    between atoms: CAA_1  and  CBA_6 
REMARK    2  A    between atoms: CAA_1  and  C2A_28 
REMARK    3  A    between atoms: CAB_2  and  C3B_35 
REMARK    4  A    between atoms: CAD_4  and  CBD_9 
REMARK    5  A    between atoms: CAD_4  and  C3D_37 
REMARK    6  A    between atoms: CBA_6  and  CGA_11 
REMARK    7  A    between atoms: CBD_9  and  CGD_12 
ROOT
HETATM    1  CAC HEM A 148     -24.019 -10.529  25.764  1.00 17.51    -0.025 C 
HETATM    2  NA  HEM A 148     -27.860  -7.417  20.117  1.00 13.88    -0.246 N 
HETATM    3  CBC HEM A 148     -24.239 -11.968  25.763  1.00 22.56     0.031 C 
HETATM    4  NB  HEM A 148     -26.740  -5.978  22.197  1.00 13.06    -0.246 N 
HETATM    5  ND  HEM A 148     -26.846  -9.771  21.178  1.00 11.97    -0.246 N 
HETATM    6  CHA HEM A 148     -28.242  -9.637  19.199  1.00 12.79     0.038 C 
HETATM    7  CHB HEM A 148     -27.978  -4.987  20.357  1.00 14.03     0.038 C 
HETATM    8  CHC HEM A 148     -25.756  -6.188  24.418  1.00 14.68     0.038 A 
HETATM    9  CHD HEM A 148     -25.577 -10.757  23.003  1.00 11.42     0.038 C 
HETATM   10  CMA HEM A 148     -29.987  -5.086  18.028  1.00 16.75     0.032 C 
HETATM   11  CMB HEM A 148     -27.350  -2.257  21.683  1.00 11.97     0.033 C 
HETATM   12  CMC HEM A 148     -24.505  -7.751  26.859  1.00 15.35     0.033 C 
HETATM   13  CMD HEM A 148     -26.106 -13.472  21.586  1.00 12.06     0.032 C 
HETATM   14  C1A HEM A 148     -28.456  -8.275  19.220  1.00 13.87     0.079 A 
HETATM   15  C1B HEM A 148     -27.222  -4.888  21.502  1.00 14.21     0.079 A 
HETATM   16  C1C HEM A 148     -25.568  -7.554  24.418  1.00 12.26     0.079 A 
HETATM   17  C1D HEM A 148     -26.280 -10.844  21.829  1.00 11.83     0.079 A 
HETATM   18  C2A HEM A 148     -29.382  -7.572  18.352  1.00 18.04    -0.006 A 
HETATM   19  C2B HEM A 148     -26.981  -3.648  22.204  1.00 14.05    -0.003 A 
HETATM   20  C2C HEM A 148     -24.926  -8.289  25.491  1.00 15.15    -0.003 A 
HETATM   21  C2D HEM A 148     -26.567 -12.083  21.164  1.00 12.69    -0.007 A 
HETATM   22  C3A HEM A 148     -29.267  -6.261  18.671  1.00 15.63    -0.007 A 
HETATM   23  C3B HEM A 148     -26.368  -3.984  23.380  1.00 15.80     0.011 A 
HETATM   24  C3C HEM A 148     -24.761  -9.565  25.068  1.00 14.87     0.011 A 
HETATM   25  C3D HEM A 148     -27.325 -11.770  20.096  1.00 11.87    -0.006 A 
HETATM   26  C4A HEM A 148     -28.327  -6.171  19.747  1.00 15.24     0.079 A 
HETATM   27  C4B HEM A 148     -26.260  -5.436  23.371  1.00 14.44     0.082 A 
HETATM   28  C4C HEM A 148     -25.379  -9.612  23.738  1.00 12.44     0.082 A 
HETATM   29  C4D HEM A 148     -27.493 -10.341  20.112  1.00 11.45     0.079 A 
HETATM   30  NC  HEM A 148     -25.853  -8.370  23.346  1.00 12.45    -0.246 N 
HETATM   31 FE   HEM A 148     -26.640  -7.854  21.584  1.00 11.27     0.000 Fe
ENDROOT
BRANCH  18  32
HETATM   32  CAA HEM A 148     -30.378  -8.181  17.363  1.00 19.59     0.039 C 
BRANCH  32  33
HETATM   33  CBA HEM A 148     -31.805  -8.140  17.877  1.00 31.97     0.102 C 
BRANCH  33  34
HETATM   34  CGA HEM A 148     -32.042  -8.614  19.309  1.00 38.78     0.186 C 
HETATM   35  O1A HEM A 148     -31.863  -9.802  19.592  1.00 41.39    -0.647 OA
HETATM   36  O2A HEM A 148     -32.381  -7.776  20.150  1.00 42.18    -0.647 OA
ENDBRANCH  33  34
ENDBRANCH  32  33
ENDBRANCH  18  32
BRANCH  25  37
HETATM   37  CAD HEM A 148     -27.910 -12.750  19.094  1.00 12.86     0.039 C 
BRANCH  37  38
HETATM   38  CBD HEM A 148     -29.307 -13.257  19.461  1.00 15.48     0.102 C 
BRANCH  38  39
HETATM   39  CGD HEM A 148     -30.406 -12.803  18.521  1.00 16.81     0.186 C 
HETATM   40  O1D HEM A 148     -30.114 -12.097  17.565  1.00 19.28    -0.647 OA
HETATM   41  O2D HEM A 148     -31.563 -13.132  18.759  1.00 20.24    -0.647 OA
ENDBRANCH  38  39
ENDBRANCH  37  38
ENDBRANCH  25  37
BRANCH  23  42
HETATM   42  CAB HEM A 148     -25.856  -3.141  24.367  1.00 15.24    -0.025 C 
HETATM   43  CBB HEM A 148     -26.634  -2.594  25.465  1.00 15.41     0.031 C 
ENDBRANCH  23  42
TORSDOF 7
ENDMDL
MODEL 3
REMARK VINA RESULT:      -8.0      4.307      9.688
REMARK  7 active torsions:
REMARK  status: ('A' for Active; 'I' for Inactive)
REMARK    1  A    between atoms: CAA_1  and  CBA_6 
REMARK    2  A    between atoms: CAA_1  and  C2A_28 
REMARK    3  A    between atoms: CAB_2  and  C3B_35 
REMARK    4  A    between atoms: CAD_4  and  CBD_9 
REMARK    5  A    between atoms: CAD_4  and  C3D_37 
REMARK    6  A    between atoms: CBA_6  and  CGA_11 
REMARK    7  A    between atoms: CBD_9  and  CGD_12 
ROOT
HETATM    1  CAC HEM A 148     -29.816  -2.823  18.105  1.00 17.51    -0.025 C 
HETATM    2  NA  HEM A 148     -26.605  -8.268  22.151  1.00 13.88    -0.246 N 
HETATM    3  CBC HEM A 148     -29.882  -1.605  18.899  1.00 22.56     0.031 C 
HETATM    4  NB  HEM A 148     -27.981  -8.708  19.792  1.00 13.06    -0.246 N 
HETATM    5  ND  HEM A 148     -27.035  -5.537  21.911  1.00 11.97    -0.246 N 
HETATM    6  CHA HEM A 148     -25.909  -6.600  23.779  1.00 12.79     0.038 C 
HETATM    7  CHB HEM A 148     -26.928 -10.456  21.110  1.00 14.03     0.038 C 
HETATM    8  CHC HEM A 148     -29.507  -7.678  18.193  1.00 14.68     0.038 A 
HETATM    9  CHD HEM A 148     -28.059  -3.785  20.573  1.00 11.42     0.038 C 
HETATM   10  CMA HEM A 148     -25.765 -11.609  23.713  1.00 16.75     0.032 C 
HETATM   11  CMB HEM A 148     -27.887 -12.405  18.899  1.00 11.97     0.033 C 
HETATM   12  CMC HEM A 148     -31.076  -5.279  16.869  1.00 15.35     0.033 C 
HETATM   13  CMD HEM A 148     -26.975  -1.832  22.733  1.00 12.06     0.032 C 
HETATM   14  C1A HEM A 148     -26.057  -7.905  23.360  1.00 13.87     0.079 A 
HETATM   15  C1B HEM A 148     -27.607 -10.019  19.995  1.00 14.21     0.079 A 
HETATM   16  C1C HEM A 148     -29.390  -6.373  18.627  1.00 12.26     0.079 A 
HETATM   17  C1D HEM A 148     -27.332  -4.219  21.651  1.00 11.83     0.079 A 
HETATM   18  C2A HEM A 148     -25.720  -9.070  24.159  1.00 18.04    -0.006 A 
HETATM   19  C2B HEM A 148     -28.151 -10.900  18.987  1.00 14.05    -0.003 A 
HETATM   20  C2C HEM A 148     -30.037  -5.242  17.990  1.00 15.15    -0.003 A 
HETATM   21  C2D HEM A 148     -26.841  -3.348  22.681  1.00 12.69    -0.007 A 
HETATM   22  C3A HEM A 148     -25.983 -10.143  23.375  1.00 15.63    -0.007 A 
HETATM   23  C3B HEM A 148     -28.912 -10.118  18.162  1.00 15.80     0.011 A 
HETATM   24  C3C HEM A 148     -29.556  -4.118  18.573  1.00 14.87     0.011 A 
HETATM   25  C3D HEM A 148     -26.242  -4.140  23.589  1.00 11.87    -0.006 A 
HETATM   26  C4A HEM A 148     -26.516  -9.645  22.144  1.00 15.24     0.079 A 
HETATM   27  C4B HEM A 148     -28.821  -8.768  18.700  1.00 14.44     0.082 A 
HETATM   28  C4C HEM A 148     -28.651  -4.589  19.627  1.00 12.44     0.082 A 
HETATM   29  C4D HEM A 148     -26.366  -5.490  23.108  1.00 11.45     0.079 A 
HETATM   30  NC  HEM A 148     -28.546  -5.971  19.637  1.00 12.45    -0.246 N 
HETATM   31 FE   HEM A 148     -27.346  -7.106  20.761  1.00 11.27     0.000 Fe
ENDROOT
BRANCH  18  32
HETATM   32  CAA HEM A 148     -25.278  -9.101  25.623  1.00 19.59     0.039 C 
BRANCH  32  33
HETATM   33  CBA HEM A 148     -23.776  -9.255  25.772  1.00 31.97     0.102 C 
BRANCH  33  34
HETATM   34  CGA HEM A 148     -23.268 -10.546  26.410  1.00 38.78     0.186 C 
HETATM   35  O1A HEM A 148     -24.081 -11.393  26.792  1.00 41.39    -0.647 OA
HETATM   36  O2A HEM A 148     -22.049 -10.711  26.497  1.00 42.18    -0.647 OA
ENDBRANCH  33  34
ENDBRANCH  32  33
ENDBRANCH  18  32
BRANCH  25  37
HETATM   37  CAD HEM A 148     -25.593  -3.687  24.886  1.00 12.86     0.039 C 
BRANCH  37  38
HETATM   38  CBD HEM A 148     -24.080  -3.917  24.939  1.00 15.48     0.102 C 
BRANCH  38  39
HETATM   39  CGD HEM A 148     -23.571  -4.430  26.272  1.00 16.81     0.186 C 
HETATM   40  O1D HEM A 148     -23.896  -5.551  26.639  1.00 19.28    -0.647 OA
HETATM   41  O2D HEM A 148     -22.870  -3.695  26.960  1.00 20.24    -0.647 OA
ENDBRANCH  38  39
ENDBRANCH  37  38
ENDBRANCH  25  37
BRANCH  23  42
HETATM   42  CAB HEM A 148     -29.578 -10.478  16.990  1.00 15.24    -0.025 C 
HETATM   43  CBB HEM A 148     -29.063 -10.260  15.650  1.00 15.41     0.031 C 
ENDBRANCH  23  42
TORSDOF 7
ENDMDL
MODEL 4
REMARK VINA RESULT:      -7.9      1.699      3.099
REMARK  7 active torsions:
REMARK  status: ('A' for Active; 'I' for Inactive)
REMARK    1  A    between atoms: CAA_1  and  CBA_6 
REMARK    2  A    between atoms: CAA_1  and  C2A_28 
REMARK    3  A    between atoms: CAB_2  and  C3B_35 
REMARK    4  A    between atoms: CAD_4  and  CBD_9 
REMARK    5  A    between atoms: CAD_4  and  C3D_37 
REMARK    6  A    between atoms: CBA_6  and  CGA_11 
REMARK    7  A    between atoms: CBD_9  and  CGD_12 
ROOT
HETATM    1  CAC HEM A 148     -24.293  -9.376  25.448  1.00 17.51    -0.025 C 
HETATM    2  NA  HEM A 148     -28.387  -7.543  19.432  1.00 13.88    -0.246 N 
HETATM    3  CBC HEM A 148     -24.381 -10.811  25.675  1.00 22.56     0.031 C 
HETATM    4  NB  HEM A 148     -27.407  -5.702  21.248  1.00 13.06    -0.246 N 
HETATM    5  ND  HEM A 148     -27.167  -9.602  20.835  1.00 11.97    -0.246 N 
HETATM    6  CHA HEM A 148     -28.565  -9.905  18.876  1.00 12.79     0.038 C 
HETATM    7  CHB HEM A 148     -28.726  -5.126  19.291  1.00 14.03     0.038 C 
HETATM    8  CHC HEM A 148     -26.412  -5.472  23.462  1.00 14.68     0.038 A 
HETATM    9  CHD HEM A 148     -25.817 -10.172  22.775  1.00 11.42     0.038 C 
HETATM   10  CMA HEM A 148     -30.712  -5.769  17.031  1.00 16.75     0.032 C 
HETATM   11  CMB HEM A 148     -28.350  -2.178  20.167  1.00 11.97     0.033 C 
HETATM   12  CMC HEM A 148     -25.030  -6.516  26.102  1.00 15.35     0.033 C 
HETATM   13  CMD HEM A 148     -26.096 -13.111  21.806  1.00 12.06     0.032 C 
HETATM   14  C1A HEM A 148     -28.901  -8.581  18.687  1.00 13.87     0.079 A 
HETATM   15  C1B HEM A 148     -27.984  -4.782  20.398  1.00 14.21     0.079 A 
HETATM   16  C1C HEM A 148     -26.102  -6.800  23.673  1.00 12.26     0.079 A 
HETATM   17  C1D HEM A 148     -26.507 -10.504  21.638  1.00 11.83     0.079 A 
HETATM   18  C2A HEM A 148     -29.885  -8.109  17.731  1.00 18.04    -0.006 A 
HETATM   19  C2B HEM A 148     -27.858  -3.431  20.895  1.00 14.05    -0.003 A 
HETATM   20  C2C HEM A 148     -25.398  -7.297  24.840  1.00 15.15    -0.003 A 
HETATM   21  C2D HEM A 148     -26.679 -11.853  21.178  1.00 12.69    -0.007 A 
HETATM   22  C3A HEM A 148     -29.890  -6.759  17.840  1.00 15.63    -0.007 A 
HETATM   23  C3B HEM A 148     -27.219  -3.522  22.101  1.00 15.80     0.011 A 
HETATM   24  C3C HEM A 148     -25.117  -8.603  24.620  1.00 14.87     0.011 A 
HETATM   25  C3D HEM A 148     -27.460 -11.780  20.084  1.00 11.87    -0.006 A 
HETATM   26  C4A HEM A 148     -28.964  -6.418  18.878  1.00 15.24     0.079 A 
HETATM   27  C4B HEM A 148     -26.980  -4.942  22.317  1.00 14.44     0.082 A 
HETATM   28  C4C HEM A 148     -25.725  -8.913  23.321  1.00 12.44     0.082 A 
HETATM   29  C4D HEM A 148     -27.757 -10.387  19.879  1.00 11.45     0.079 A 
HETATM   30  NC  HEM A 148     -26.309  -7.795  22.745  1.00 12.45    -0.246 N 
HETATM   31 FE   HEM A 148     -27.136  -7.634  20.934  1.00 11.27     0.000 Fe
ENDROOT
BRANCH  18  32
HETATM   32  CAA HEM A 148     -30.820  -8.952  16.861  1.00 19.59     0.039 C 
BRANCH  32  33
HETATM   33  CBA HEM A 148     -30.143  -9.452  15.598  1.00 31.97     0.102 C 
BRANCH  33  34
HETATM   34  CGA HEM A 148     -30.449 -10.884  15.165  1.00 38.78     0.186 C 
HETATM   35  O1A HEM A 148     -29.724 -11.432  14.330  1.00 41.39    -0.647 OA
HETATM   36  O2A HEM A 148     -31.405 -11.459  15.691  1.00 42.18    -0.647 OA
ENDBRANCH  33  34
ENDBRANCH  32  33
ENDBRANCH  18  32
BRANCH  25  37
HETATM   37  CAD HEM A 148     -27.952 -12.953  19.254  1.00 12.86     0.039 C 
BRANCH  37  38
HETATM   38  CBD HEM A 148     -29.310 -13.505  19.698  1.00 15.48     0.102 C 
BRANCH  38  39
HETATM   39  CGD HEM A 148     -30.449 -13.208  18.743  1.00 16.81     0.186 C 
HETATM   40  O1D HEM A 148     -31.150 -12.224  18.944  1.00 19.28    -0.647 OA
HETATM   41  O2D HEM A 148     -30.656 -13.977  17.810  1.00 20.24    -0.647 OA
ENDBRANCH  38  39
ENDBRANCH  37  38
ENDBRANCH  25  37
BRANCH  23  42
HETATM   42  CAB HEM A 148     -26.788  -2.493  22.938  1.00 15.24    -0.025 C 
HETATM   43  CBB HEM A 148     -27.644  -1.775  23.867  1.00 15.41     0.031 C 
ENDBRANCH  23  42
TORSDOF 7
ENDMDL
MODEL 5
REMARK VINA RESULT:      -7.9      3.346      9.106
REMARK  7 active torsions:
REMARK  status: ('A' for Active; 'I' for Inactive)
REMARK    1  A    between atoms: CAA_1  and  CBA_6 
REMARK    2  A    between atoms: CAA_1  and  C2A_28 
REMARK    3  A    between atoms: CAB_2  and  C3B_35 
REMARK    4  A    between atoms: CAD_4  and  CBD_9 
REMARK    5  A    between atoms: CAD_4  and  C3D_37 
REMARK    6  A    between atoms: CBA_6  and  CGA_11 
REMARK    7  A    between atoms: CBD_9  and  CGD_12 
ROOT
HETATM    1  CAC HEM A 148     -30.322  -3.208  17.641  1.00 17.51    -0.025 C 
HETATM    2  NA  HEM A 148     -26.716  -8.323  21.782  1.00 13.88    -0.246 N 
HETATM    3  CBC HEM A 148     -30.404  -1.957  18.380  1.00 22.56     0.031 C 
HETATM    4  NB  HEM A 148     -28.174  -8.929  19.512  1.00 13.06    -0.246 N 
HETATM    5  ND  HEM A 148     -27.268  -5.626  21.438  1.00 11.97    -0.246 N 
HETATM    6  CHA HEM A 148     -26.019  -6.553  23.299  1.00 12.79     0.038 C 
HETATM    7  CHB HEM A 148     -26.993 -10.569  20.859  1.00 14.03     0.038 C 
HETATM    8  CHC HEM A 148     -29.809  -8.037  17.938  1.00 14.68     0.038 A 
HETATM    9  CHD HEM A 148     -28.421  -3.982  20.068  1.00 11.42     0.038 C 
HETATM   10  CMA HEM A 148     -25.671 -11.551  23.457  1.00 16.75     0.032 C 
HETATM   11  CMB HEM A 148     -27.965 -12.658  18.786  1.00 11.97     0.033 C 
HETATM   12  CMC HEM A 148     -31.532  -5.768  16.578  1.00 15.35     0.033 C 
HETATM   13  CMD HEM A 148     -27.326  -1.886  22.085  1.00 12.06     0.032 C 
HETATM   14  C1A HEM A 148     -26.130  -7.882  22.948  1.00 13.87     0.079 A 
HETATM   15  C1B HEM A 148     -27.737 -10.213  19.757  1.00 14.21     0.079 A 
HETATM   16  C1C HEM A 148     -29.727  -6.710  18.305  1.00 12.26     0.079 A 
HETATM   17  C1D HEM A 148     -27.630  -4.334  21.131  1.00 11.83     0.079 A 
HETATM   18  C2A HEM A 148     -25.712  -8.993  23.783  1.00 18.04    -0.006 A 
HETATM   19  C2B HEM A 148     -28.288 -11.162  18.816  1.00 14.05    -0.003 A 
HETATM   20  C2C HEM A 148     -30.447  -5.636  17.647  1.00 15.15    -0.003 A 
HETATM   21  C2D HEM A 148     -27.132  -3.396  22.097  1.00 12.69    -0.007 A 
HETATM   22  C3A HEM A 148     -25.964 -10.112  23.063  1.00 15.63    -0.007 A 
HETATM   23  C3B HEM A 148     -29.115 -10.450  17.992  1.00 15.80     0.011 A 
HETATM   24  C3C HEM A 148     -29.989  -4.468  18.155  1.00 14.87     0.011 A 
HETATM   25  C3D HEM A 148     -26.461  -4.120  23.012  1.00 11.87    -0.006 A 
HETATM   26  C4A HEM A 148     -26.570  -9.695  21.835  1.00 15.24     0.079 A 
HETATM   27  C4B HEM A 148     -29.057  -9.074  18.462  1.00 14.44     0.082 A 
HETATM   28  C4C HEM A 148     -29.020  -4.852  19.188  1.00 12.44     0.082 A 
HETATM   29  C4D HEM A 148     -26.550  -5.496  22.599  1.00 11.45     0.079 A 
HETATM   30  NC  HEM A 148     -28.857  -6.227  19.257  1.00 12.45    -0.246 N 
HETATM   31 FE   HEM A 148     -27.564  -7.259  20.376  1.00 11.27     0.000 Fe
ENDROOT
BRANCH  18  32
HETATM   32  CAA HEM A 148     -25.205  -8.937  25.226  1.00 19.59     0.039 C 
BRANCH  32  33
HETATM   33  CBA HEM A 148     -26.294  -9.248  26.235  1.00 31.97     0.102 C 
BRANCH  33  34
HETATM   34  CGA HEM A 148     -27.533  -8.355  26.220  1.00 38.78     0.186 C 
HETATM   35  O1A HEM A 148     -27.440  -7.182  26.593  1.00 41.39    -0.647 OA
HETATM   36  O2A HEM A 148     -28.590  -8.835  25.802  1.00 42.18    -0.647 OA
ENDBRANCH  33  34
ENDBRANCH  32  33
ENDBRANCH  18  32
BRANCH  25  37
HETATM   37  CAD HEM A 148     -25.775  -3.580  24.256  1.00 12.86     0.039 C 
BRANCH  37  38
HETATM   38  CBD HEM A 148     -26.526  -3.871  25.557  1.00 15.48     0.102 C 
BRANCH  38  39
HETATM   39  CGD HEM A 148     -27.979  -3.436  25.554  1.00 16.81     0.186 C 
HETATM   40  O1D HEM A 148     -28.239  -2.240  25.518  1.00 19.28    -0.647 OA
HETATM   41  O2D HEM A 148     -28.854  -4.293  25.615  1.00 20.24    -0.647 OA
ENDBRANCH  38  39
ENDBRANCH  37  38
ENDBRANCH  25  37
BRANCH  23  42
HETATM   42  CAB HEM A 148     -29.816 -10.892  16.870  1.00 15.24    -0.025 C 
HETATM   43  CBB HEM A 148     -29.317 -10.825  15.508  1.00 15.41     0.031 C 
ENDBRANCH  23  42
TORSDOF 7
ENDMDL
MODEL 6
REMARK VINA RESULT:      -7.9      7.993      8.922
REMARK  7 active torsions:
REMARK  status: ('A' for Active; 'I' for Inactive)
REMARK    1  A    between atoms: CAA_1  and  CBA_6 
REMARK    2  A    between atoms: CAA_1  and  C2A_28 
REMARK    3  A    between atoms: CAB_2  and  C3B_35 
REMARK    4  A    between atoms: CAD_4  and  CBD_9 
REMARK    5  A    between atoms: CAD_4  and  C3D_37 
REMARK    6  A    between atoms: CBA_6  and  CGA_11 
REMARK    7  A    between atoms: CBD_9  and  CGD_12 
ROOT
HETATM    1  CAC HEM A 148     -17.940  -6.535  22.963  1.00 17.51    -0.025 C 
HETATM    2  NA  HEM A 148     -21.653  -5.825  16.480  1.00 13.88    -0.246 N 
HETATM    3  CBC HEM A 148     -17.964  -7.928  23.384  1.00 22.56     0.031 C 
HETATM    4  NB  HEM A 148     -20.922  -3.690  18.079  1.00 13.06    -0.246 N 
HETATM    5  ND  HEM A 148     -20.431  -7.585  18.242  1.00 11.97    -0.246 N 
HETATM    6  CHA HEM A 148     -21.653  -8.247  16.254  1.00 12.79     0.038 C 
HETATM    7  CHB HEM A 148     -22.115  -3.478  15.974  1.00 14.03     0.038 C 
HETATM    8  CHC HEM A 148     -20.116  -3.092  20.302  1.00 14.68     0.038 A 
HETATM    9  CHD HEM A 148     -19.205  -7.791  20.332  1.00 11.42     0.038 C 
HETATM   10  CMA HEM A 148     -23.881  -4.557  13.697  1.00 16.75     0.032 C 
HETATM   11  CMB HEM A 148     -21.975  -0.419  16.446  1.00 11.97     0.033 C 
HETATM   12  CMC HEM A 148     -18.886  -3.668  23.152  1.00 15.35     0.033 C 
HETATM   13  CMD HEM A 148     -19.241 -10.848  19.773  1.00 12.06     0.032 C 
HETATM   14  C1A HEM A 148     -22.048  -6.987  15.857  1.00 13.87     0.079 A 
HETATM   15  C1B HEM A 148     -21.482  -2.937  17.069  1.00 14.21     0.079 A 
HETATM   16  C1C HEM A 148     -19.748  -4.355  20.720  1.00 12.26     0.079 A 
HETATM   17  C1D HEM A 148     -19.785  -8.322  19.209  1.00 11.83     0.079 A 
HETATM   18  C2A HEM A 148     -22.981  -6.718  14.778  1.00 18.04    -0.006 A 
HETATM   19  C2B HEM A 148     -21.471  -1.524  17.377  1.00 14.05    -0.003 A 
HETATM   20  C2C HEM A 148     -19.110  -4.639  21.991  1.00 15.15    -0.003 A 
HETATM   21  C2D HEM A 148     -19.845  -9.730  18.934  1.00 12.69    -0.007 A 
HETATM   22  C3A HEM A 148     -23.070  -5.369  14.694  1.00 15.63    -0.007 A 
HETATM   23  C3B HEM A 148     -20.924  -1.406  18.625  1.00 15.80     0.011 A 
HETATM   24  C3C HEM A 148     -18.740  -5.941  21.978  1.00 14.87     0.011 A 
HETATM   25  C3D HEM A 148     -20.541  -9.860  17.790  1.00 11.87    -0.006 A 
HETATM   26  C4A HEM A 148     -22.248  -4.827  15.734  1.00 15.24     0.079 A 
HETATM   27  C4B HEM A 148     -20.622  -2.763  19.056  1.00 14.44     0.082 A 
HETATM   28  C4C HEM A 148     -19.227  -6.466  20.698  1.00 12.44     0.082 A 
HETATM   29  C4D HEM A 148     -20.900  -8.532  17.369  1.00 11.45     0.079 A 
HETATM   30  NC  HEM A 148     -19.827  -5.480  19.930  1.00 12.45    -0.246 N 
HETATM   31 FE   HEM A 148     -20.518  -5.625  18.062  1.00 11.27     0.000 Fe
ENDROOT
BRANCH  18  32
HETATM   32  CAA HEM A 148     -23.796  -7.733  13.974  1.00 19.59     0.039 C 
BRANCH  32  33
HETATM   33  CBA HEM A 148     -23.323  -7.850  12.537  1.00 31.97     0.102 C 
BRANCH  33  34
HETATM   34  CGA HEM A 148     -21.817  -7.776  12.292  1.00 38.78     0.186 C 
HETATM   35  O1A HEM A 148     -21.331  -6.746  11.815  1.00 41.39    -0.647 OA
HETATM   36  O2A HEM A 148     -21.128  -8.749  12.609  1.00 42.18    -0.647 OA
ENDBRANCH  33  34
ENDBRANCH  32  33
ENDBRANCH  18  32
BRANCH  25  37
HETATM   37  CAD HEM A 148     -20.901 -11.167  17.103  1.00 12.86     0.039 C 
BRANCH  37  38
HETATM   38  CBD HEM A 148     -19.721 -11.851  16.408  1.00 15.48     0.102 C 
BRANCH  38  39
HETATM   39  CGD HEM A 148     -18.846 -10.918  15.593  1.00 16.81     0.186 C 
HETATM   40  O1D HEM A 148     -17.751 -10.596  16.034  1.00 19.28    -0.647 OA
HETATM   41  O2D HEM A 148     -19.272 -10.489  14.526  1.00 20.24    -0.647 OA
ENDBRANCH  38  39
ENDBRANCH  37  38
ENDBRANCH  25  37
BRANCH  23  42
HETATM   42  CAB HEM A 148     -20.618  -0.245  19.335  1.00 15.24    -0.025 C 
HETATM   43  CBB HEM A 148     -21.604   0.642  19.925  1.00 15.41     0.031 C 
ENDBRANCH  23  42
TORSDOF 7
ENDMDL
MODEL 7
REMARK VINA RESULT:      -7.8      8.406     10.872
REMARK  7 active torsions:
REMARK  status: ('A' for Active; 'I' for Inactive)
REMARK    1  A    between atoms: CAA_1  and  CBA_6 
REMARK    2  A    between atoms: CAA_1  and  C2A_28 
REMARK    3  A    between atoms: CAB_2  and  C3B_35 
REMARK    4  A    between atoms: CAD_4  and  CBD_9 
REMARK    5  A    between atoms: CAD_4  and  C3D_37 
REMARK    6  A    between atoms: CBA_6  and  CGA_11 
REMARK    7  A    between atoms: CBD_9  and  CGD_12 
ROOT
HETATM    1  CAC HEM A 148     -19.588 -10.594  19.534  1.00 17.51    -0.025 C 
HETATM    2  NA  HEM A 148     -21.434  -3.565  17.664  1.00 13.88    -0.246 N 
HETATM    3  CBC HEM A 148     -18.541 -10.567  20.545  1.00 22.56     0.031 C 
HETATM    4  NB  HEM A 148     -22.186  -5.794  16.210  1.00 13.06    -0.246 N 
HETATM    5  ND  HEM A 148     -20.166  -5.185  19.524  1.00 11.97    -0.246 N 
HETATM    6  CHA HEM A 148     -20.180  -2.760  19.587  1.00 12.79     0.038 C 
HETATM    7  CHB HEM A 148     -22.782  -3.513  15.625  1.00 14.03     0.038 C 
HETATM    8  CHC HEM A 148     -21.754  -8.176  15.911  1.00 14.68     0.038 A 
HETATM    9  CHD HEM A 148     -19.600  -7.472  20.127  1.00 11.42     0.038 C 
HETATM   10  CMA HEM A 148     -22.397  -0.463  15.724  1.00 16.75     0.032 C 
HETATM   11  CMB HEM A 148     -24.344  -4.755  13.254  1.00 11.97     0.033 C 
HETATM   12  CMC HEM A 148     -20.552 -10.988  16.694  1.00 15.35     0.033 C 
HETATM   13  CMD HEM A 148     -18.150  -6.215  22.572  1.00 12.06     0.032 C 
HETATM   14  C1A HEM A 148     -20.887  -2.554  18.421  1.00 13.87     0.079 A 
HETATM   15  C1B HEM A 148     -22.851  -4.874  15.429  1.00 14.21     0.079 A 
HETATM   16  C1C HEM A 148     -21.018  -8.384  17.058  1.00 12.26     0.079 A 
HETATM   17  C1D HEM A 148     -19.585  -6.120  20.352  1.00 11.83     0.079 A 
HETATM   18  C2A HEM A 148     -21.093  -1.258  17.801  1.00 18.04    -0.006 A 
HETATM   19  C2B HEM A 148     -23.490  -5.491  14.288  1.00 14.05    -0.003 A 
HETATM   20  C2C HEM A 148     -20.520  -9.679  17.484  1.00 15.15    -0.003 A 
HETATM   21  C2D HEM A 148     -18.901  -5.504  21.454  1.00 12.69    -0.007 A 
HETATM   22  C3A HEM A 148     -21.856  -1.489  16.706  1.00 15.63    -0.007 A 
HETATM   23  C3B HEM A 148     -23.180  -6.822  14.348  1.00 15.80     0.011 A 
HETATM   24  C3C HEM A 148     -20.004  -9.528  18.727  1.00 14.87     0.011 A 
HETATM   25  C3D HEM A 148     -19.057  -4.176  21.299  1.00 11.87    -0.006 A 
HETATM   26  C4A HEM A 148     -22.069  -2.903  16.632  1.00 15.24     0.079 A 
HETATM   27  C4B HEM A 148     -22.342  -6.983  15.527  1.00 14.44     0.082 A 
HETATM   28  C4C HEM A 148     -20.137  -8.098  19.027  1.00 12.44     0.082 A 
HETATM   29  C4D HEM A 148     -19.838  -3.987  20.105  1.00 11.45     0.079 A 
HETATM   30  NC  HEM A 148     -20.774  -7.413  18.003  1.00 12.45    -0.246 N 
HETATM   31 FE   HEM A 148     -21.333  -5.496  17.968  1.00 11.27     0.000 Fe
ENDROOT
BRANCH  18  32
HETATM   32  CAA HEM A 148     -20.480   0.082  18.214  1.00 19.59     0.039 C 
BRANCH  32  33
HETATM   33  CBA HEM A 148     -21.376   0.864  19.156  1.00 31.97     0.102 C 
BRANCH  33  34
HETATM   34  CGA HEM A 148     -20.967   0.913  20.627  1.00 38.78     0.186 C 
HETATM   35  O1A HEM A 148     -19.879   0.439  20.969  1.00 41.39    -0.647 OA
HETATM   36  O2A HEM A 148     -21.734   1.456  21.426  1.00 42.18    -0.647 OA
ENDBRANCH  33  34
ENDBRANCH  32  33
ENDBRANCH  18  32
BRANCH  25  37
HETATM   37  CAD HEM A 148     -18.484  -3.095  22.199  1.00 12.86     0.039 C 
BRANCH  37  38
HETATM   38  CBD HEM A 148     -19.528  -2.395  23.074  1.00 15.48     0.102 C 
BRANCH  38  39
HETATM   39  CGD HEM A 148     -20.051  -3.237  24.221  1.00 16.81     0.186 C 
HETATM   40  O1D HEM A 148     -21.257  -3.276  24.426  1.00 19.28    -0.647 OA
HETATM   41  O2D HEM A 148     -19.249  -3.835  24.930  1.00 20.24    -0.647 OA
ENDBRANCH  38  39
ENDBRANCH  37  38
ENDBRANCH  25  37
BRANCH  23  42
HETATM   42  CAB HEM A 148     -23.624  -7.857  13.524  1.00 15.24    -0.025 C 
HETATM   43  CBB HEM A 148     -23.117  -8.122  12.189  1.00 15.41     0.031 C 
ENDBRANCH  23  42
TORSDOF 7
ENDMDL
MODEL 8
REMARK VINA RESULT:      -7.8      8.595     11.960
REMARK  7 active torsions:
REMARK  status: ('A' for Active; 'I' for Inactive)
REMARK    1  A    between atoms: CAA_1  and  CBA_6 
REMARK    2  A    between atoms: CAA_1  and  C2A_28 
REMARK    3  A    between atoms: CAB_2  and  C3B_35 
REMARK    4  A    between atoms: CAD_4  and  CBD_9 
REMARK    5  A    between atoms: CAD_4  and  C3D_37 
REMARK    6  A    between atoms: CBA_6  and  CGA_11 
REMARK    7  A    between atoms: CBD_9  and  CGD_12 
ROOT
HETATM    1  CAC HEM A 148     -23.518  -4.883  13.398  1.00 17.51    -0.025 C 
HETATM    2  NA  HEM A 148     -19.784  -5.467  19.882  1.00 13.88    -0.246 N 
HETATM    3  CBC HEM A 148     -24.117  -3.560  13.302  1.00 22.56     0.031 C 
HETATM    4  NB  HEM A 148     -20.417  -7.622  18.269  1.00 13.06    -0.246 N 
HETATM    5  ND  HEM A 148     -20.949  -3.736  18.054  1.00 11.97    -0.246 N 
HETATM    6  CHA HEM A 148     -19.992  -3.062  20.179  1.00 12.79     0.038 C 
HETATM    7  CHB HEM A 148     -19.201  -7.791  20.365  1.00 14.03     0.038 C 
HETATM    8  CHC HEM A 148     -21.794  -8.319  16.381  1.00 14.68     0.038 A 
HETATM    9  CHD HEM A 148     -22.135  -3.565  15.939  1.00 11.42     0.038 C 
HETATM   10  CMA HEM A 148     -18.342  -6.759  23.132  1.00 16.75     0.032 C 
HETATM   11  CMB HEM A 148     -19.026 -10.828  19.773  1.00 11.97     0.033 C 
HETATM   12  CMC HEM A 148     -23.683  -7.863  13.892  1.00 15.35     0.033 C 
HETATM   13  CMD HEM A 148     -22.184  -0.507  16.487  1.00 12.06     0.032 C 
HETATM   14  C1A HEM A 148     -19.647  -4.319  20.628  1.00 13.87     0.079 A 
HETATM   15  C1B HEM A 148     -19.720  -8.343  19.215  1.00 14.21     0.079 A 
HETATM   16  C1C HEM A 148     -22.171  -7.066  15.944  1.00 12.26     0.079 A 
HETATM   17  C1D HEM A 148     -21.564  -3.014  17.056  1.00 11.83     0.079 A 
HETATM   18  C2A HEM A 148     -19.159  -4.611  21.964  1.00 18.04    -0.006 A 
HETATM   19  C2B HEM A 148     -19.742  -9.762  18.941  1.00 14.05    -0.003 A 
HETATM   20  C2C HEM A 148     -22.973  -6.822  14.759  1.00 15.15    -0.003 A 
HETATM   21  C2D HEM A 148     -21.594  -1.610  17.355  1.00 12.69    -0.007 A 
HETATM   22  C3A HEM A 148     -18.911  -5.942  21.983  1.00 15.63    -0.007 A 
HETATM   23  C3B HEM A 148     -20.503  -9.925  17.817  1.00 15.80     0.011 A 
HETATM   24  C3C HEM A 148     -22.990  -5.485  14.548  1.00 14.87     0.011 A 
HETATM   25  C3D HEM A 148     -20.997  -1.467  18.553  1.00 11.87    -0.006 A 
HETATM   26  C4A HEM A 148     -19.287  -6.460  20.703  1.00 15.24     0.079 A 
HETATM   27  C4B HEM A 148     -20.941  -8.590  17.436  1.00 14.44     0.082 A 
HETATM   28  C4C HEM A 148     -22.238  -4.909  15.668  1.00 12.44     0.082 A 
HETATM   29  C4D HEM A 148     -20.603  -2.784  18.979  1.00 11.45     0.079 A 
HETATM   30  NC  HEM A 148     -21.728  -5.890  16.505  1.00 12.45    -0.246 N 
HETATM   31 FE   HEM A 148     -20.518  -5.658  18.077  1.00 11.27     0.000 Fe
ENDROOT
BRANCH  18  32
HETATM   32  CAA HEM A 148     -19.058  -3.651  23.151  1.00 19.59     0.039 C 
BRANCH  32  33
HETATM   33  CBA HEM A 148     -20.393  -3.435  23.838  1.00 31.97     0.102 C 
BRANCH  33  34
HETATM   34  CGA HEM A 148     -20.663  -2.047  24.414  1.00 38.78     0.186 C 
HETATM   35  O1A HEM A 148     -20.244  -1.051  23.817  1.00 41.39    -0.647 OA
HETATM   36  O2A HEM A 148     -21.322  -1.967  25.454  1.00 42.18    -0.647 OA
ENDBRANCH  33  34
ENDBRANCH  32  33
ENDBRANCH  18  32
BRANCH  25  37
HETATM   37  CAD HEM A 148     -20.812  -0.165  19.313  1.00 12.86     0.039 C 
BRANCH  37  38
HETATM   38  CBD HEM A 148     -19.556   0.615  18.917  1.00 15.48     0.102 C 
BRANCH  38  39
HETATM   39  CGD HEM A 148     -18.280   0.122  19.571  1.00 16.81     0.186 C 
HETATM   40  O1D HEM A 148     -18.238   0.026  20.791  1.00 19.28    -0.647 OA
HETATM   41  O2D HEM A 148     -17.315  -0.140  18.862  1.00 20.24    -0.647 OA
ENDBRANCH  38  39
ENDBRANCH  37  38
ENDBRANCH  25  37
BRANCH  23  42
HETATM   42  CAB HEM A 148     -20.759 -11.095  17.101  1.00 15.24    -0.025 C 
HETATM   43  CBB HEM A 148     -19.883 -11.643  16.080  1.00 15.41     0.031 C 
ENDBRANCH  23  42
TORSDOF 7
ENDMDL
MODEL 9
REMARK VINA RESULT:      -7.5      3.808      7.617
REMARK  7 active torsions:
REMARK  status: ('A' for Active; 'I' for Inactive)
REMARK    1  A    between atoms: CAA_1  and  CBA_6 
REMARK    2  A    between atoms: CAA_1  and  C2A_28 
REMARK    3  A    between atoms: CAB_2  and  C3B_35 
REMARK    4  A    between atoms: CAD_4  and  CBD_9 
REMARK    5  A    between atoms: CAD_4  and  C3D_37 
REMARK    6  A    between atoms: CBA_6  and  CGA_11 
REMARK    7  A    between atoms: CBD_9  and  CGD_12 
ROOT
HETATM    1  CAC HEM A 148     -28.481 -12.550  18.469  1.00 17.51    -0.025 C 
HETATM    2  NA  HEM A 148     -27.523  -5.885  21.782  1.00 13.88    -0.246 N 
HETATM    3  CBC HEM A 148     -27.506 -13.496  18.993  1.00 22.56     0.031 C 
HETATM    4  NB  HEM A 148     -29.058  -6.272  19.514  1.00 13.06    -0.246 N 
HETATM    5  ND  HEM A 148     -26.969  -8.601  21.891  1.00 11.97    -0.246 N 
HETATM    6  CHA HEM A 148     -26.065  -6.945  23.416  1.00 12.79     0.038 C 
HETATM    7  CHB HEM A 148     -28.744  -4.125  20.605  1.00 14.03     0.038 C 
HETATM    8  CHC HEM A 148     -29.558  -7.863  17.735  1.00 14.68     0.038 A 
HETATM    9  CHD HEM A 148     -27.314 -10.755  20.818  1.00 11.42     0.038 C 
HETATM   10  CMA HEM A 148     -27.234  -2.170  22.439  1.00 16.75     0.032 C 
HETATM   11  CMB HEM A 148     -30.651  -2.987  18.443  1.00 11.97     0.033 C 
HETATM   12  CMC HEM A 148     -29.512 -10.686  16.322  1.00 15.35     0.033 C 
HETATM   13  CMD HEM A 148     -25.505 -11.898  23.072  1.00 12.06     0.032 C 
HETATM   14  C1A HEM A 148     -26.637  -5.833  22.835  1.00 13.87     0.079 A 
HETATM   15  C1B HEM A 148     -29.322  -4.925  19.647  1.00 14.21     0.079 A 
HETATM   16  C1C HEM A 148     -28.959  -8.973  18.294  1.00 12.26     0.079 A 
HETATM   17  C1D HEM A 148     -26.789  -9.963  21.806  1.00 11.83     0.079 A 
HETATM   18  C2A HEM A 148     -26.335  -4.462  23.204  1.00 18.04    -0.006 A 
HETATM   19  C2B HEM A 148     -30.143  -4.425  18.567  1.00 14.05    -0.003 A 
HETATM   20  C2C HEM A 148     -28.990 -10.299  17.706  1.00 15.15    -0.003 A 
HETATM   21  C2D HEM A 148     -25.927 -10.453  22.845  1.00 12.69    -0.007 A 
HETATM   22  C3A HEM A 148     -27.125  -3.686  22.425  1.00 15.63    -0.007 A 
HETATM   23  C3B HEM A 148     -30.359  -5.483  17.727  1.00 15.80     0.011 A 
HETATM   24  C3C HEM A 148     -28.460 -11.157  18.610  1.00 14.87     0.011 A 
HETATM   25  C3D HEM A 148     -25.568  -9.379  23.573  1.00 11.87    -0.006 A 
HETATM   26  C4A HEM A 148     -27.857  -4.564  21.562  1.00 15.24     0.079 A 
HETATM   27  C4B HEM A 148     -29.649  -6.609  18.314  1.00 14.44     0.082 A 
HETATM   28  C4C HEM A 148     -28.042 -10.317  19.739  1.00 12.44     0.082 A 
HETATM   29  C4D HEM A 148     -26.215  -8.240  22.978  1.00 11.45     0.079 A 
HETATM   30  NC  HEM A 148     -28.370  -8.984  19.538  1.00 12.45    -0.246 N 
HETATM   31 FE   HEM A 148     -28.161  -7.462  20.813  1.00 11.27     0.000 Fe
ENDROOT
BRANCH  18  32
HETATM   32  CAA HEM A 148     -25.262  -3.974  24.180  1.00 19.59     0.039 C 
BRANCH  32  33
HETATM   33  CBA HEM A 148     -25.783  -3.851  25.600  1.00 31.97     0.102 C 
BRANCH  33  34
HETATM   34  CGA HEM A 148     -25.331  -4.912  26.602  1.00 38.78     0.186 C 
HETATM   35  O1A HEM A 148     -25.984  -5.086  27.635  1.00 41.39    -0.647 OA
HETATM   36  O2A HEM A 148     -24.334  -5.584  26.326  1.00 42.18    -0.647 OA
ENDBRANCH  33  34
ENDBRANCH  32  33
ENDBRANCH  18  32
BRANCH  25  37
HETATM   37  CAD HEM A 148     -24.632  -9.380  24.769  1.00 12.86     0.039 C 
BRANCH  37  38
HETATM   38  CBD HEM A 148     -25.284  -9.857  26.070  1.00 15.48     0.102 C 
BRANCH  38  39
HETATM   39  CGD HEM A 148     -25.830  -8.744  26.943  1.00 16.81     0.186 C 
HETATM   40  O1D HEM A 148     -25.206  -8.414  27.942  1.00 19.28    -0.647 OA
HETATM   41  O2D HEM A 148     -26.898  -8.223  26.639  1.00 20.24    -0.647 OA
ENDBRANCH  38  39
ENDBRANCH  37  38
ENDBRANCH  25  37
BRANCH  23  42
HETATM   42  CAB HEM A 148     -31.159  -5.538  16.585  1.00 15.24    -0.025 C 
HETATM   43  CBB HEM A 148     -31.028  -4.647  15.445  1.00 15.41     0.031 C 
ENDBRANCH  23  42
TORSDOF 7
ENDMDL
