REMARK VINA RESULT:      -7.2      1.836      3.570
REMARK  4 active torsions:
REMARK  status: ('A' for Active; 'I' for Inactive)
REMARK    1  A    between atoms: O_1  and  C_10 
REMARK    2  A    between atoms: O_2  and  C_11 
REMARK    3  A    between atoms: C_5  and  C_6 
REMARK    4  A    between atoms: C_6  and  C_12 
ROOT
HETATM    1  O   UNK     0     113.908  69.762  10.988  0.00  0.00    -0.285 OA
HETATM    2  O   UNK     0     113.363  74.231   8.155  0.00  0.00    -0.285 OA
HETATM    3  C   UNK     0     113.453  72.097  11.028  0.00  0.00     0.008 A 
HETATM    4  C   UNK     0     113.333  73.231  10.313  0.00  0.00     0.002 A 
HETATM    5  C   UNK     0     113.772  70.803  10.351  0.00  0.00     0.215 A 
HETATM    6  C   UNK     0     113.489  73.211   8.828  0.00  0.00     0.214 A 
HETATM    7  C   UNK     0     113.931  70.800   8.880  0.00  0.00     0.156 A 
HETATM    8  C   UNK     0     113.799  71.922   8.170  0.00  0.00     0.156 A 
HETATM    9  C   UNK     0     113.058  74.595  10.889  0.00  0.00     0.053 C 
ENDROOT
BRANCH   3  10
HETATM   10  C   UNK     0     113.273  71.988  12.518  0.00  0.00     0.071 C 
BRANCH  10  11
HETATM   11  C   UNK     0     111.841  71.757  12.885  0.00  0.00    -0.020 C 
HETATM   12  C   UNK     0     111.301  70.660  13.449  0.00  0.00    -0.091 C 
HETATM   13  C   UNK     0     109.849  70.488  13.795  0.00  0.00     0.042 C 
HETATM   14  C   UNK     0     112.167  69.477  13.797  0.00  0.00     0.042 C 
ENDBRANCH  10  11
ENDBRANCH   3  10
BRANCH   7  15
HETATM   15  O   UNK     0     114.221  69.599   8.262  0.00  0.00    -0.350 OA
HETATM   16  C   UNK     0     113.052  68.820   8.109  0.00  0.00     0.210 C 
ENDBRANCH   7  15
BRANCH   8  17
HETATM   17  O   UNK     0     113.938  71.950   6.796  0.00  0.00    -0.350 OA
HETATM   18  C   UNK     0     112.677  71.880   6.162  0.00  0.00     0.210 C 
ENDBRANCH   8  17
TORSDOF 4
