REMARK VINA RESULT:      -3.9      8.595      9.906
REMARK  6 active torsions:
REMARK  status: ('A' for Active; 'I' for Inactive)
REMARK    1  A    between atoms: C1_1  and  O1_8 
REMARK    2  A    between atoms: C2_2  and  O2_9 
REMARK    3  A    between atoms: C3_3  and  O3_10 
REMARK    4  A    between atoms: C4_4  and  O4_11 
REMARK    5  A    between atoms: C5_5  and  C6_6 
REMARK    6  A    between atoms: C6_6  and  O6_13 
ROOT
HETATM    1  C1  AMG     0      58.630  35.044  17.778  0.00  0.00     0.290 C 
HETATM    2  C2  AMG     0      57.701  35.796  16.822  0.00  0.00     0.204 C 
HETATM    3  C3  AMG     0      57.781  37.294  17.123  0.00  0.00     0.183 C 
HETATM    4  C4  AMG     0      57.496  37.510  18.613  0.00  0.00     0.180 C 
HETATM    5  C5  AMG     0      58.441  36.630  19.434  0.00  0.00     0.179 C 
HETATM    6  O5  AMG     0      58.212  35.257  19.124  0.00  0.00    -0.349 OA
ENDROOT
BRANCH   5   7
HETATM    7  C6  AMG     0      58.185  36.864  20.924  0.00  0.00     0.198 C 
BRANCH   7   8
HETATM    8  O6  AMG     0      57.159  35.976  21.376  0.00  0.00    -0.398 OA
HETATM    9  HO6 AMG     0      56.815  36.344  22.201  0.00  0.00     0.209 HD
ENDBRANCH   7   8
ENDBRANCH   5   7
BRANCH   4  10
HETATM   10  O4  AMG     0      56.142  37.157  18.900  0.00  0.00    -0.390 OA
HETATM   11  HO4 AMG     0      55.875  36.509  18.234  0.00  0.00     0.210 HD
ENDBRANCH   4  10
BRANCH   3  12
HETATM   12  O3  AMG     0      56.811  37.995  16.343  0.00  0.00    -0.390 OA
HETATM   13  HO3 AMG     0      56.361  38.609  16.940  0.00  0.00     0.210 HD
ENDBRANCH   3  12
BRANCH   1  14
HETATM   14  O1  AMG     0      59.967  35.521  17.614  0.00  0.00    -0.363 OA
HETATM   15  C7  AMG     0      60.803  34.370  17.487  0.00  0.00     0.204 C 
ENDBRANCH   1  14
BRANCH   2  16
HETATM   16  O2  AMG     0      58.107  35.557  15.474  0.00  0.00    -0.388 OA
HETATM   17  HO2 AMG     0      58.835  34.921  15.509  0.00  0.00     0.210 HD
ENDBRANCH   2  16
TORSDOF 6
