REMARK VINA RESULT:      -4.0      0.000      0.000
REMARK  6 active torsions:
REMARK  status: ('A' for Active; 'I' for Inactive)
REMARK    1  A    between atoms: C1_1  and  O1_8 
REMARK    2  A    between atoms: C2_2  and  O2_9 
REMARK    3  A    between atoms: C3_3  and  O3_10 
REMARK    4  A    between atoms: C4_4  and  O4_11 
REMARK    5  A    between atoms: C5_5  and  C6_6 
REMARK    6  A    between atoms: C6_6  and  O6_13 
ROOT
HETATM    1  C1  AMG     0      54.370  28.943  22.777  0.00  0.00     0.290 C 
HETATM    2  C2  AMG     0      53.165  28.173  23.320  0.00  0.00     0.204 C 
HETATM    3  C3  AMG     0      52.001  29.146  23.523  0.00  0.00     0.183 C 
HETATM    4  C4  AMG     0      52.480  30.309  24.397  0.00  0.00     0.180 C 
HETATM    5  C5  AMG     0      53.736  30.918  23.773  0.00  0.00     0.179 C 
HETATM    6  O5  AMG     0      54.770  29.938  23.716  0.00  0.00    -0.349 OA
ENDROOT
BRANCH   5   7
HETATM    7  C6  AMG     0      54.203  32.101  24.623  0.00  0.00     0.198 C 
BRANCH   7   8
HETATM    8  O6  AMG     0      53.067  32.838  25.079  0.00  0.00    -0.398 OA
HETATM    9  HO6 AMG     0      52.500  32.214  25.552  0.00  0.00     0.209 HD
ENDBRANCH   7   8
ENDBRANCH   5   7
BRANCH   4  10
HETATM   10  O4  AMG     0      52.781  29.831  25.709  0.00  0.00    -0.390 OA
HETATM   11  HO4 AMG     0      53.106  30.588  26.215  0.00  0.00     0.210 HD
ENDBRANCH   4  10
BRANCH   3  12
HETATM   12  O3  AMG     0      50.917  28.474  24.168  0.00  0.00    -0.390 OA
HETATM   13  HO3 AMG     0      51.224  27.580  24.373  0.00  0.00     0.210 HD
ENDBRANCH   3  12
BRANCH   1  14
HETATM   14  O1  AMG     0      54.017  29.569  21.542  0.00  0.00    -0.363 OA
HETATM   15  C7  AMG     0      55.192  29.576  20.731  0.00  0.00     0.204 C 
ENDBRANCH   1  14
BRANCH   2  16
HETATM   16  O2  AMG     0      52.785  27.159  22.389  0.00  0.00    -0.388 OA
HETATM   17  HO2 AMG     0      51.818  27.125  22.392  0.00  0.00     0.210 HD
ENDBRANCH   2  16
TORSDOF 6
