REMARK  7 active torsions:
REMARK  status: ('A' for Active; 'I' for Inactive)
REMARK    1  A    between atoms: CAA_1  and  CBA_6 
REMARK    2  A    between atoms: CAA_1  and  C2A_28 
REMARK    3  A    between atoms: CAB_2  and  C3B_35 
REMARK    4  A    between atoms: CAD_4  and  CBD_9 
REMARK    5  A    between atoms: CAD_4  and  C3D_37 
REMARK    6  A    between atoms: CBA_6  and  CGA_11 
REMARK    7  A    between atoms: CBD_9  and  CGD_12 
ROOT
HETATM    1  CAC HEM A 148     -21.559  -9.591  22.836  1.00 17.51    -0.025 C 
HETATM    2  NA  HEM A 148     -25.473  -6.136  17.445  1.00 13.88    -0.246 N 
HETATM    3  CBC HEM A 148     -21.844 -11.018  22.802  1.00 22.56     0.031 C 
HETATM    4  NB  HEM A 148     -24.207  -4.814  19.518  1.00 13.06    -0.246 N 
HETATM    5  ND  HEM A 148     -24.527  -8.565  18.394  1.00 11.97    -0.246 N 
HETATM    6  CHA HEM A 148     -25.992  -8.307  16.478  1.00 12.79     0.038 C 
HETATM    7  CHB HEM A 148     -25.470  -3.712  17.760  1.00 14.03     0.038 C 
HETATM    8  CHC HEM A 148     -23.146  -5.137  21.690  1.00 14.68     0.038 A 
HETATM    9  CHD HEM A 148     -23.233  -9.663  20.135  1.00 11.42     0.038 C 
HETATM   10  CMA HEM A 148     -27.571  -3.649  15.514  1.00 16.75     0.032 C 
HETATM   11  CMB HEM A 148     -24.665  -1.056  19.139  1.00 11.97     0.033 C 
HETATM   12  CMC HEM A 148     -21.873  -6.830  24.031  1.00 15.35     0.033 C 
HETATM   13  CMD HEM A 148     -23.942 -12.306  18.662  1.00 12.06     0.032 C 
HETATM   14  C1A HEM A 148     -26.142  -6.938  16.548  1.00 13.87     0.079 A 
HETATM   15  C1B HEM A 148     -24.665  -3.683  18.876  1.00 14.21     0.079 A 
HETATM   16  C1C HEM A 148     -23.022  -6.510  21.642  1.00 12.26     0.079 A 
HETATM   17  C1D HEM A 148     -23.985  -9.682  18.989  1.00 11.83     0.079 A 
HETATM   18  C2A HEM A 148     -27.069  -6.168  15.739  1.00 18.04    -0.006 A 
HETATM   19  C2B HEM A 148     -24.340  -2.477  19.604  1.00 14.05    -0.003 A 
HETATM   20  C2C HEM A 148     -22.372  -7.306  22.666  1.00 15.15    -0.003 A 
HETATM   21  C2D HEM A 148     -24.355 -10.886  18.300  1.00 12.69    -0.007 A 
HETATM   22  C3A HEM A 148     -26.881  -4.874  16.092  1.00 15.63    -0.007 A 
HETATM   23  C3B HEM A 148     -23.697  -2.877  20.743  1.00 15.80     0.011 A 
HETATM   24  C3C HEM A 148     -22.283  -8.574  22.200  1.00 14.87     0.011 A 
HETATM   25  C3D HEM A 148     -25.139 -10.506  17.274  1.00 11.87    -0.006 A 
HETATM   26  C4A HEM A 148     -25.896  -4.860  17.131  1.00 15.24     0.079 A 
HETATM   27  C4B HEM A 148     -23.656  -4.331  20.687  1.00 14.44     0.082 A 
HETATM   28  C4C HEM A 148     -22.954  -8.552  20.895  1.00 12.44     0.082 A 
HETATM   29  C4D HEM A 148     -25.241  -9.072  17.339  1.00 11.45     0.079 A 
HETATM   30  NC  HEM A 148     -23.386  -7.278  20.559  1.00 12.45    -0.246 N 
HETATM   31 FE   HEM A 148     -24.217  -6.673  18.847  1.00 11.27     0.000 Fe
ENDROOT
BRANCH  18  32
HETATM   32  CAA HEM A 148     -28.130  -6.701  14.774  1.00 19.59     0.039 C 
BRANCH  32  33
HETATM   33  CBA HEM A 148     -27.540  -7.134  13.445  1.00 31.97     0.102 C 
BRANCH  33  34
HETATM   34  CGA HEM A 148     -28.514  -7.352  12.289  1.00 38.78     0.186 C 
HETATM   35  O1A HEM A 148     -29.322  -6.464  12.002  1.00 41.39    -0.647 OA
HETATM   36  O2A HEM A 148     -28.439  -8.409  11.657  1.00 42.18    -0.647 OA
ENDBRANCH  33  34
ENDBRANCH  32  33
ENDBRANCH  18  32
BRANCH  25  37
HETATM   37  CAD HEM A 148     -25.808 -11.427  16.268  1.00 12.86     0.039 C 
BRANCH  37  38
HETATM   38  CBD HEM A 148     -25.165 -11.405  14.879  1.00 15.48     0.102 C 
BRANCH  38  39
HETATM   39  CGD HEM A 148     -23.693 -11.769  14.864  1.00 16.81     0.186 C 
HETATM   40  O1D HEM A 148     -23.339 -12.827  15.367  1.00 19.28    -0.647 OA
HETATM   41  O2D HEM A 148     -22.893 -10.980  14.373  1.00 20.24    -0.647 OA
ENDBRANCH  38  39
ENDBRANCH  37  38
ENDBRANCH  25  37
BRANCH  23  42
HETATM   42  CAB HEM A 148     -23.109  -2.089  21.733  1.00 15.24    -0.025 C 
HETATM   43  CBB HEM A 148     -23.830  -1.148  22.572  1.00 15.41     0.031 C 
ENDBRANCH  23  42
TORSDOF 7
