REMARK VINA RESULT:      -7.8      8.406     10.872
REMARK  7 active torsions:
REMARK  status: ('A' for Active; 'I' for Inactive)
REMARK    1  A    between atoms: CAA_1  and  CBA_6 
REMARK    2  A    between atoms: CAA_1  and  C2A_28 
REMARK    3  A    between atoms: CAB_2  and  C3B_35 
REMARK    4  A    between atoms: CAD_4  and  CBD_9 
REMARK    5  A    between atoms: CAD_4  and  C3D_37 
REMARK    6  A    between atoms: CBA_6  and  CGA_11 
REMARK    7  A    between atoms: CBD_9  and  CGD_12 
ROOT
HETATM    1  CAC HEM A 148     -19.588 -10.594  19.534  1.00 17.51    -0.025 C 
HETATM    2  NA  HEM A 148     -21.434  -3.565  17.664  1.00 13.88    -0.246 N 
HETATM    3  CBC HEM A 148     -18.541 -10.567  20.545  1.00 22.56     0.031 C 
HETATM    4  NB  HEM A 148     -22.186  -5.794  16.210  1.00 13.06    -0.246 N 
HETATM    5  ND  HEM A 148     -20.166  -5.185  19.524  1.00 11.97    -0.246 N 
HETATM    6  CHA HEM A 148     -20.180  -2.760  19.587  1.00 12.79     0.038 C 
HETATM    7  CHB HEM A 148     -22.782  -3.513  15.625  1.00 14.03     0.038 C 
HETATM    8  CHC HEM A 148     -21.754  -8.176  15.911  1.00 14.68     0.038 A 
HETATM    9  CHD HEM A 148     -19.600  -7.472  20.127  1.00 11.42     0.038 C 
HETATM   10  CMA HEM A 148     -22.397  -0.463  15.724  1.00 16.75     0.032 C 
HETATM   11  CMB HEM A 148     -24.344  -4.755  13.254  1.00 11.97     0.033 C 
HETATM   12  CMC HEM A 148     -20.552 -10.988  16.694  1.00 15.35     0.033 C 
HETATM   13  CMD HEM A 148     -18.150  -6.215  22.572  1.00 12.06     0.032 C 
HETATM   14  C1A HEM A 148     -20.887  -2.554  18.421  1.00 13.87     0.079 A 
HETATM   15  C1B HEM A 148     -22.851  -4.874  15.429  1.00 14.21     0.079 A 
HETATM   16  C1C HEM A 148     -21.018  -8.384  17.058  1.00 12.26     0.079 A 
HETATM   17  C1D HEM A 148     -19.585  -6.120  20.352  1.00 11.83     0.079 A 
HETATM   18  C2A HEM A 148     -21.093  -1.258  17.801  1.00 18.04    -0.006 A 
HETATM   19  C2B HEM A 148     -23.490  -5.491  14.288  1.00 14.05    -0.003 A 
HETATM   20  C2C HEM A 148     -20.520  -9.679  17.484  1.00 15.15    -0.003 A 
HETATM   21  C2D HEM A 148     -18.901  -5.504  21.454  1.00 12.69    -0.007 A 
HETATM   22  C3A HEM A 148     -21.856  -1.489  16.706  1.00 15.63    -0.007 A 
HETATM   23  C3B HEM A 148     -23.180  -6.822  14.348  1.00 15.80     0.011 A 
HETATM   24  C3C HEM A 148     -20.004  -9.528  18.727  1.00 14.87     0.011 A 
HETATM   25  C3D HEM A 148     -19.057  -4.176  21.299  1.00 11.87    -0.006 A 
HETATM   26  C4A HEM A 148     -22.069  -2.903  16.632  1.00 15.24     0.079 A 
HETATM   27  C4B HEM A 148     -22.342  -6.983  15.527  1.00 14.44     0.082 A 
HETATM   28  C4C HEM A 148     -20.137  -8.098  19.027  1.00 12.44     0.082 A 
HETATM   29  C4D HEM A 148     -19.838  -3.987  20.105  1.00 11.45     0.079 A 
HETATM   30  NC  HEM A 148     -20.774  -7.413  18.003  1.00 12.45    -0.246 N 
HETATM   31 FE   HEM A 148     -21.333  -5.496  17.968  1.00 11.27     0.000 Fe
ENDROOT
BRANCH  18  32
HETATM   32  CAA HEM A 148     -20.480   0.082  18.214  1.00 19.59     0.039 C 
BRANCH  32  33
HETATM   33  CBA HEM A 148     -21.376   0.864  19.156  1.00 31.97     0.102 C 
BRANCH  33  34
HETATM   34  CGA HEM A 148     -20.967   0.913  20.627  1.00 38.78     0.186 C 
HETATM   35  O1A HEM A 148     -19.879   0.439  20.969  1.00 41.39    -0.647 OA
HETATM   36  O2A HEM A 148     -21.734   1.456  21.426  1.00 42.18    -0.647 OA
ENDBRANCH  33  34
ENDBRANCH  32  33
ENDBRANCH  18  32
BRANCH  25  37
HETATM   37  CAD HEM A 148     -18.484  -3.095  22.199  1.00 12.86     0.039 C 
BRANCH  37  38
HETATM   38  CBD HEM A 148     -19.528  -2.395  23.074  1.00 15.48     0.102 C 
BRANCH  38  39
HETATM   39  CGD HEM A 148     -20.051  -3.237  24.221  1.00 16.81     0.186 C 
HETATM   40  O1D HEM A 148     -21.257  -3.276  24.426  1.00 19.28    -0.647 OA
HETATM   41  O2D HEM A 148     -19.249  -3.835  24.930  1.00 20.24    -0.647 OA
ENDBRANCH  38  39
ENDBRANCH  37  38
ENDBRANCH  25  37
BRANCH  23  42
HETATM   42  CAB HEM A 148     -23.624  -7.857  13.524  1.00 15.24    -0.025 C 
HETATM   43  CBB HEM A 148     -23.117  -8.122  12.189  1.00 15.41     0.031 C 
ENDBRANCH  23  42
TORSDOF 7
