REMARK VINA RESULT:      -7.8      8.595     11.960
REMARK  7 active torsions:
REMARK  status: ('A' for Active; 'I' for Inactive)
REMARK    1  A    between atoms: CAA_1  and  CBA_6 
REMARK    2  A    between atoms: CAA_1  and  C2A_28 
REMARK    3  A    between atoms: CAB_2  and  C3B_35 
REMARK    4  A    between atoms: CAD_4  and  CBD_9 
REMARK    5  A    between atoms: CAD_4  and  C3D_37 
REMARK    6  A    between atoms: CBA_6  and  CGA_11 
REMARK    7  A    between atoms: CBD_9  and  CGD_12 
ROOT
HETATM    1  CAC HEM A 148     -23.518  -4.883  13.398  1.00 17.51    -0.025 C 
HETATM    2  NA  HEM A 148     -19.784  -5.467  19.882  1.00 13.88    -0.246 N 
HETATM    3  CBC HEM A 148     -24.117  -3.560  13.302  1.00 22.56     0.031 C 
HETATM    4  NB  HEM A 148     -20.417  -7.622  18.269  1.00 13.06    -0.246 N 
HETATM    5  ND  HEM A 148     -20.949  -3.736  18.054  1.00 11.97    -0.246 N 
HETATM    6  CHA HEM A 148     -19.992  -3.062  20.179  1.00 12.79     0.038 C 
HETATM    7  CHB HEM A 148     -19.201  -7.791  20.365  1.00 14.03     0.038 C 
HETATM    8  CHC HEM A 148     -21.794  -8.319  16.381  1.00 14.68     0.038 A 
HETATM    9  CHD HEM A 148     -22.135  -3.565  15.939  1.00 11.42     0.038 C 
HETATM   10  CMA HEM A 148     -18.342  -6.759  23.132  1.00 16.75     0.032 C 
HETATM   11  CMB HEM A 148     -19.026 -10.828  19.773  1.00 11.97     0.033 C 
HETATM   12  CMC HEM A 148     -23.683  -7.863  13.892  1.00 15.35     0.033 C 
HETATM   13  CMD HEM A 148     -22.184  -0.507  16.487  1.00 12.06     0.032 C 
HETATM   14  C1A HEM A 148     -19.647  -4.319  20.628  1.00 13.87     0.079 A 
HETATM   15  C1B HEM A 148     -19.720  -8.343  19.215  1.00 14.21     0.079 A 
HETATM   16  C1C HEM A 148     -22.171  -7.066  15.944  1.00 12.26     0.079 A 
HETATM   17  C1D HEM A 148     -21.564  -3.014  17.056  1.00 11.83     0.079 A 
HETATM   18  C2A HEM A 148     -19.159  -4.611  21.964  1.00 18.04    -0.006 A 
HETATM   19  C2B HEM A 148     -19.742  -9.762  18.941  1.00 14.05    -0.003 A 
HETATM   20  C2C HEM A 148     -22.973  -6.822  14.759  1.00 15.15    -0.003 A 
HETATM   21  C2D HEM A 148     -21.594  -1.610  17.355  1.00 12.69    -0.007 A 
HETATM   22  C3A HEM A 148     -18.911  -5.942  21.983  1.00 15.63    -0.007 A 
HETATM   23  C3B HEM A 148     -20.503  -9.925  17.817  1.00 15.80     0.011 A 
HETATM   24  C3C HEM A 148     -22.990  -5.485  14.548  1.00 14.87     0.011 A 
HETATM   25  C3D HEM A 148     -20.997  -1.467  18.553  1.00 11.87    -0.006 A 
HETATM   26  C4A HEM A 148     -19.287  -6.460  20.703  1.00 15.24     0.079 A 
HETATM   27  C4B HEM A 148     -20.941  -8.590  17.436  1.00 14.44     0.082 A 
HETATM   28  C4C HEM A 148     -22.238  -4.909  15.668  1.00 12.44     0.082 A 
HETATM   29  C4D HEM A 148     -20.603  -2.784  18.979  1.00 11.45     0.079 A 
HETATM   30  NC  HEM A 148     -21.728  -5.890  16.505  1.00 12.45    -0.246 N 
HETATM   31 FE   HEM A 148     -20.518  -5.658  18.077  1.00 11.27     0.000 Fe
ENDROOT
BRANCH  18  32
HETATM   32  CAA HEM A 148     -19.058  -3.651  23.151  1.00 19.59     0.039 C 
BRANCH  32  33
HETATM   33  CBA HEM A 148     -20.393  -3.435  23.838  1.00 31.97     0.102 C 
BRANCH  33  34
HETATM   34  CGA HEM A 148     -20.663  -2.047  24.414  1.00 38.78     0.186 C 
HETATM   35  O1A HEM A 148     -20.244  -1.051  23.817  1.00 41.39    -0.647 OA
HETATM   36  O2A HEM A 148     -21.322  -1.967  25.454  1.00 42.18    -0.647 OA
ENDBRANCH  33  34
ENDBRANCH  32  33
ENDBRANCH  18  32
BRANCH  25  37
HETATM   37  CAD HEM A 148     -20.812  -0.165  19.313  1.00 12.86     0.039 C 
BRANCH  37  38
HETATM   38  CBD HEM A 148     -19.556   0.615  18.917  1.00 15.48     0.102 C 
BRANCH  38  39
HETATM   39  CGD HEM A 148     -18.280   0.122  19.571  1.00 16.81     0.186 C 
HETATM   40  O1D HEM A 148     -18.238   0.026  20.791  1.00 19.28    -0.647 OA
HETATM   41  O2D HEM A 148     -17.315  -0.140  18.862  1.00 20.24    -0.647 OA
ENDBRANCH  38  39
ENDBRANCH  37  38
ENDBRANCH  25  37
BRANCH  23  42
HETATM   42  CAB HEM A 148     -20.759 -11.095  17.101  1.00 15.24    -0.025 C 
HETATM   43  CBB HEM A 148     -19.883 -11.643  16.080  1.00 15.41     0.031 C 
ENDBRANCH  23  42
TORSDOF 7
