REMARK VINA RESULT:      -7.9      1.699      3.099
REMARK  7 active torsions:
REMARK  status: ('A' for Active; 'I' for Inactive)
REMARK    1  A    between atoms: CAA_1  and  CBA_6 
REMARK    2  A    between atoms: CAA_1  and  C2A_28 
REMARK    3  A    between atoms: CAB_2  and  C3B_35 
REMARK    4  A    between atoms: CAD_4  and  CBD_9 
REMARK    5  A    between atoms: CAD_4  and  C3D_37 
REMARK    6  A    between atoms: CBA_6  and  CGA_11 
REMARK    7  A    between atoms: CBD_9  and  CGD_12 
ROOT
HETATM    1  CAC HEM A 148     -24.293  -9.376  25.448  1.00 17.51    -0.025 C 
HETATM    2  NA  HEM A 148     -28.387  -7.543  19.432  1.00 13.88    -0.246 N 
HETATM    3  CBC HEM A 148     -24.381 -10.811  25.675  1.00 22.56     0.031 C 
HETATM    4  NB  HEM A 148     -27.407  -5.702  21.248  1.00 13.06    -0.246 N 
HETATM    5  ND  HEM A 148     -27.167  -9.602  20.835  1.00 11.97    -0.246 N 
HETATM    6  CHA HEM A 148     -28.565  -9.905  18.876  1.00 12.79     0.038 C 
HETATM    7  CHB HEM A 148     -28.726  -5.126  19.291  1.00 14.03     0.038 C 
HETATM    8  CHC HEM A 148     -26.412  -5.472  23.462  1.00 14.68     0.038 A 
HETATM    9  CHD HEM A 148     -25.817 -10.172  22.775  1.00 11.42     0.038 C 
HETATM   10  CMA HEM A 148     -30.712  -5.769  17.031  1.00 16.75     0.032 C 
HETATM   11  CMB HEM A 148     -28.350  -2.178  20.167  1.00 11.97     0.033 C 
HETATM   12  CMC HEM A 148     -25.030  -6.516  26.102  1.00 15.35     0.033 C 
HETATM   13  CMD HEM A 148     -26.096 -13.111  21.806  1.00 12.06     0.032 C 
HETATM   14  C1A HEM A 148     -28.901  -8.581  18.687  1.00 13.87     0.079 A 
HETATM   15  C1B HEM A 148     -27.984  -4.782  20.398  1.00 14.21     0.079 A 
HETATM   16  C1C HEM A 148     -26.102  -6.800  23.673  1.00 12.26     0.079 A 
HETATM   17  C1D HEM A 148     -26.507 -10.504  21.638  1.00 11.83     0.079 A 
HETATM   18  C2A HEM A 148     -29.885  -8.109  17.731  1.00 18.04    -0.006 A 
HETATM   19  C2B HEM A 148     -27.858  -3.431  20.895  1.00 14.05    -0.003 A 
HETATM   20  C2C HEM A 148     -25.398  -7.297  24.840  1.00 15.15    -0.003 A 
HETATM   21  C2D HEM A 148     -26.679 -11.853  21.178  1.00 12.69    -0.007 A 
HETATM   22  C3A HEM A 148     -29.890  -6.759  17.840  1.00 15.63    -0.007 A 
HETATM   23  C3B HEM A 148     -27.219  -3.522  22.101  1.00 15.80     0.011 A 
HETATM   24  C3C HEM A 148     -25.117  -8.603  24.620  1.00 14.87     0.011 A 
HETATM   25  C3D HEM A 148     -27.460 -11.780  20.084  1.00 11.87    -0.006 A 
HETATM   26  C4A HEM A 148     -28.964  -6.418  18.878  1.00 15.24     0.079 A 
HETATM   27  C4B HEM A 148     -26.980  -4.942  22.317  1.00 14.44     0.082 A 
HETATM   28  C4C HEM A 148     -25.725  -8.913  23.321  1.00 12.44     0.082 A 
HETATM   29  C4D HEM A 148     -27.757 -10.387  19.879  1.00 11.45     0.079 A 
HETATM   30  NC  HEM A 148     -26.309  -7.795  22.745  1.00 12.45    -0.246 N 
HETATM   31 FE   HEM A 148     -27.136  -7.634  20.934  1.00 11.27     0.000 Fe
ENDROOT
BRANCH  18  32
HETATM   32  CAA HEM A 148     -30.820  -8.952  16.861  1.00 19.59     0.039 C 
BRANCH  32  33
HETATM   33  CBA HEM A 148     -30.143  -9.452  15.598  1.00 31.97     0.102 C 
BRANCH  33  34
HETATM   34  CGA HEM A 148     -30.449 -10.884  15.165  1.00 38.78     0.186 C 
HETATM   35  O1A HEM A 148     -29.724 -11.432  14.330  1.00 41.39    -0.647 OA
HETATM   36  O2A HEM A 148     -31.405 -11.459  15.691  1.00 42.18    -0.647 OA
ENDBRANCH  33  34
ENDBRANCH  32  33
ENDBRANCH  18  32
BRANCH  25  37
HETATM   37  CAD HEM A 148     -27.952 -12.953  19.254  1.00 12.86     0.039 C 
BRANCH  37  38
HETATM   38  CBD HEM A 148     -29.310 -13.505  19.698  1.00 15.48     0.102 C 
BRANCH  38  39
HETATM   39  CGD HEM A 148     -30.449 -13.208  18.743  1.00 16.81     0.186 C 
HETATM   40  O1D HEM A 148     -31.150 -12.224  18.944  1.00 19.28    -0.647 OA
HETATM   41  O2D HEM A 148     -30.656 -13.977  17.810  1.00 20.24    -0.647 OA
ENDBRANCH  38  39
ENDBRANCH  37  38
ENDBRANCH  25  37
BRANCH  23  42
HETATM   42  CAB HEM A 148     -26.788  -2.493  22.938  1.00 15.24    -0.025 C 
HETATM   43  CBB HEM A 148     -27.644  -1.775  23.867  1.00 15.41     0.031 C 
ENDBRANCH  23  42
TORSDOF 7
