REMARK VINA RESULT:      -8.0      4.307      9.688
REMARK  7 active torsions:
REMARK  status: ('A' for Active; 'I' for Inactive)
REMARK    1  A    between atoms: CAA_1  and  CBA_6 
REMARK    2  A    between atoms: CAA_1  and  C2A_28 
REMARK    3  A    between atoms: CAB_2  and  C3B_35 
REMARK    4  A    between atoms: CAD_4  and  CBD_9 
REMARK    5  A    between atoms: CAD_4  and  C3D_37 
REMARK    6  A    between atoms: CBA_6  and  CGA_11 
REMARK    7  A    between atoms: CBD_9  and  CGD_12 
ROOT
HETATM    1  CAC HEM A 148     -29.816  -2.823  18.105  1.00 17.51    -0.025 C 
HETATM    2  NA  HEM A 148     -26.605  -8.268  22.151  1.00 13.88    -0.246 N 
HETATM    3  CBC HEM A 148     -29.882  -1.605  18.899  1.00 22.56     0.031 C 
HETATM    4  NB  HEM A 148     -27.981  -8.708  19.792  1.00 13.06    -0.246 N 
HETATM    5  ND  HEM A 148     -27.035  -5.537  21.911  1.00 11.97    -0.246 N 
HETATM    6  CHA HEM A 148     -25.909  -6.600  23.779  1.00 12.79     0.038 C 
HETATM    7  CHB HEM A 148     -26.928 -10.456  21.110  1.00 14.03     0.038 C 
HETATM    8  CHC HEM A 148     -29.507  -7.678  18.193  1.00 14.68     0.038 A 
HETATM    9  CHD HEM A 148     -28.059  -3.785  20.573  1.00 11.42     0.038 C 
HETATM   10  CMA HEM A 148     -25.765 -11.609  23.713  1.00 16.75     0.032 C 
HETATM   11  CMB HEM A 148     -27.887 -12.405  18.899  1.00 11.97     0.033 C 
HETATM   12  CMC HEM A 148     -31.076  -5.279  16.869  1.00 15.35     0.033 C 
HETATM   13  CMD HEM A 148     -26.975  -1.832  22.733  1.00 12.06     0.032 C 
HETATM   14  C1A HEM A 148     -26.057  -7.905  23.360  1.00 13.87     0.079 A 
HETATM   15  C1B HEM A 148     -27.607 -10.019  19.995  1.00 14.21     0.079 A 
HETATM   16  C1C HEM A 148     -29.390  -6.373  18.627  1.00 12.26     0.079 A 
HETATM   17  C1D HEM A 148     -27.332  -4.219  21.651  1.00 11.83     0.079 A 
HETATM   18  C2A HEM A 148     -25.720  -9.070  24.159  1.00 18.04    -0.006 A 
HETATM   19  C2B HEM A 148     -28.151 -10.900  18.987  1.00 14.05    -0.003 A 
HETATM   20  C2C HEM A 148     -30.037  -5.242  17.990  1.00 15.15    -0.003 A 
HETATM   21  C2D HEM A 148     -26.841  -3.348  22.681  1.00 12.69    -0.007 A 
HETATM   22  C3A HEM A 148     -25.983 -10.143  23.375  1.00 15.63    -0.007 A 
HETATM   23  C3B HEM A 148     -28.912 -10.118  18.162  1.00 15.80     0.011 A 
HETATM   24  C3C HEM A 148     -29.556  -4.118  18.573  1.00 14.87     0.011 A 
HETATM   25  C3D HEM A 148     -26.242  -4.140  23.589  1.00 11.87    -0.006 A 
HETATM   26  C4A HEM A 148     -26.516  -9.645  22.144  1.00 15.24     0.079 A 
HETATM   27  C4B HEM A 148     -28.821  -8.768  18.700  1.00 14.44     0.082 A 
HETATM   28  C4C HEM A 148     -28.651  -4.589  19.627  1.00 12.44     0.082 A 
HETATM   29  C4D HEM A 148     -26.366  -5.490  23.108  1.00 11.45     0.079 A 
HETATM   30  NC  HEM A 148     -28.546  -5.971  19.637  1.00 12.45    -0.246 N 
HETATM   31 FE   HEM A 148     -27.346  -7.106  20.761  1.00 11.27     0.000 Fe
ENDROOT
BRANCH  18  32
HETATM   32  CAA HEM A 148     -25.278  -9.101  25.623  1.00 19.59     0.039 C 
BRANCH  32  33
HETATM   33  CBA HEM A 148     -23.776  -9.255  25.772  1.00 31.97     0.102 C 
BRANCH  33  34
HETATM   34  CGA HEM A 148     -23.268 -10.546  26.410  1.00 38.78     0.186 C 
HETATM   35  O1A HEM A 148     -24.081 -11.393  26.792  1.00 41.39    -0.647 OA
HETATM   36  O2A HEM A 148     -22.049 -10.711  26.497  1.00 42.18    -0.647 OA
ENDBRANCH  33  34
ENDBRANCH  32  33
ENDBRANCH  18  32
BRANCH  25  37
HETATM   37  CAD HEM A 148     -25.593  -3.687  24.886  1.00 12.86     0.039 C 
BRANCH  37  38
HETATM   38  CBD HEM A 148     -24.080  -3.917  24.939  1.00 15.48     0.102 C 
BRANCH  38  39
HETATM   39  CGD HEM A 148     -23.571  -4.430  26.272  1.00 16.81     0.186 C 
HETATM   40  O1D HEM A 148     -23.896  -5.551  26.639  1.00 19.28    -0.647 OA
HETATM   41  O2D HEM A 148     -22.870  -3.695  26.960  1.00 20.24    -0.647 OA
ENDBRANCH  38  39
ENDBRANCH  37  38
ENDBRANCH  25  37
BRANCH  23  42
HETATM   42  CAB HEM A 148     -29.578 -10.478  16.990  1.00 15.24    -0.025 C 
HETATM   43  CBB HEM A 148     -29.063 -10.260  15.650  1.00 15.41     0.031 C 
ENDBRANCH  23  42
TORSDOF 7
