REMARK VINA RESULT:      -7.9      7.993      8.922
REMARK  7 active torsions:
REMARK  status: ('A' for Active; 'I' for Inactive)
REMARK    1  A    between atoms: CAA_1  and  CBA_6 
REMARK    2  A    between atoms: CAA_1  and  C2A_28 
REMARK    3  A    between atoms: CAB_2  and  C3B_35 
REMARK    4  A    between atoms: CAD_4  and  CBD_9 
REMARK    5  A    between atoms: CAD_4  and  C3D_37 
REMARK    6  A    between atoms: CBA_6  and  CGA_11 
REMARK    7  A    between atoms: CBD_9  and  CGD_12 
ROOT
HETATM    1  CAC HEM A 148     -17.940  -6.535  22.963  1.00 17.51    -0.025 C 
HETATM    2  NA  HEM A 148     -21.653  -5.825  16.480  1.00 13.88    -0.246 N 
HETATM    3  CBC HEM A 148     -17.964  -7.928  23.384  1.00 22.56     0.031 C 
HETATM    4  NB  HEM A 148     -20.922  -3.690  18.079  1.00 13.06    -0.246 N 
HETATM    5  ND  HEM A 148     -20.431  -7.585  18.242  1.00 11.97    -0.246 N 
HETATM    6  CHA HEM A 148     -21.653  -8.247  16.254  1.00 12.79     0.038 C 
HETATM    7  CHB HEM A 148     -22.115  -3.478  15.974  1.00 14.03     0.038 C 
HETATM    8  CHC HEM A 148     -20.116  -3.092  20.302  1.00 14.68     0.038 A 
HETATM    9  CHD HEM A 148     -19.205  -7.791  20.332  1.00 11.42     0.038 C 
HETATM   10  CMA HEM A 148     -23.881  -4.557  13.697  1.00 16.75     0.032 C 
HETATM   11  CMB HEM A 148     -21.975  -0.419  16.446  1.00 11.97     0.033 C 
HETATM   12  CMC HEM A 148     -18.886  -3.668  23.152  1.00 15.35     0.033 C 
HETATM   13  CMD HEM A 148     -19.241 -10.848  19.773  1.00 12.06     0.032 C 
HETATM   14  C1A HEM A 148     -22.048  -6.987  15.857  1.00 13.87     0.079 A 
HETATM   15  C1B HEM A 148     -21.482  -2.937  17.069  1.00 14.21     0.079 A 
HETATM   16  C1C HEM A 148     -19.748  -4.355  20.720  1.00 12.26     0.079 A 
HETATM   17  C1D HEM A 148     -19.785  -8.322  19.209  1.00 11.83     0.079 A 
HETATM   18  C2A HEM A 148     -22.981  -6.718  14.778  1.00 18.04    -0.006 A 
HETATM   19  C2B HEM A 148     -21.471  -1.524  17.377  1.00 14.05    -0.003 A 
HETATM   20  C2C HEM A 148     -19.110  -4.639  21.991  1.00 15.15    -0.003 A 
HETATM   21  C2D HEM A 148     -19.845  -9.730  18.934  1.00 12.69    -0.007 A 
HETATM   22  C3A HEM A 148     -23.070  -5.369  14.694  1.00 15.63    -0.007 A 
HETATM   23  C3B HEM A 148     -20.924  -1.406  18.625  1.00 15.80     0.011 A 
HETATM   24  C3C HEM A 148     -18.740  -5.941  21.978  1.00 14.87     0.011 A 
HETATM   25  C3D HEM A 148     -20.541  -9.860  17.790  1.00 11.87    -0.006 A 
HETATM   26  C4A HEM A 148     -22.248  -4.827  15.734  1.00 15.24     0.079 A 
HETATM   27  C4B HEM A 148     -20.622  -2.763  19.056  1.00 14.44     0.082 A 
HETATM   28  C4C HEM A 148     -19.227  -6.466  20.698  1.00 12.44     0.082 A 
HETATM   29  C4D HEM A 148     -20.900  -8.532  17.369  1.00 11.45     0.079 A 
HETATM   30  NC  HEM A 148     -19.827  -5.480  19.930  1.00 12.45    -0.246 N 
HETATM   31 FE   HEM A 148     -20.518  -5.625  18.062  1.00 11.27     0.000 Fe
ENDROOT
BRANCH  18  32
HETATM   32  CAA HEM A 148     -23.796  -7.733  13.974  1.00 19.59     0.039 C 
BRANCH  32  33
HETATM   33  CBA HEM A 148     -23.323  -7.850  12.537  1.00 31.97     0.102 C 
BRANCH  33  34
HETATM   34  CGA HEM A 148     -21.817  -7.776  12.292  1.00 38.78     0.186 C 
HETATM   35  O1A HEM A 148     -21.331  -6.746  11.815  1.00 41.39    -0.647 OA
HETATM   36  O2A HEM A 148     -21.128  -8.749  12.609  1.00 42.18    -0.647 OA
ENDBRANCH  33  34
ENDBRANCH  32  33
ENDBRANCH  18  32
BRANCH  25  37
HETATM   37  CAD HEM A 148     -20.901 -11.167  17.103  1.00 12.86     0.039 C 
BRANCH  37  38
HETATM   38  CBD HEM A 148     -19.721 -11.851  16.408  1.00 15.48     0.102 C 
BRANCH  38  39
HETATM   39  CGD HEM A 148     -18.846 -10.918  15.593  1.00 16.81     0.186 C 
HETATM   40  O1D HEM A 148     -17.751 -10.596  16.034  1.00 19.28    -0.647 OA
HETATM   41  O2D HEM A 148     -19.272 -10.489  14.526  1.00 20.24    -0.647 OA
ENDBRANCH  38  39
ENDBRANCH  37  38
ENDBRANCH  25  37
BRANCH  23  42
HETATM   42  CAB HEM A 148     -20.618  -0.245  19.335  1.00 15.24    -0.025 C 
HETATM   43  CBB HEM A 148     -21.604   0.642  19.925  1.00 15.41     0.031 C 
ENDBRANCH  23  42
TORSDOF 7
